ZINC72168947
XX    ILIB05162103383D

 47 50  0  0  1  0              1 V2000
  -11.5716   -3.5100   40.0945 N   0  0  0  0  0
  -12.7407   -3.2565   40.7061 N   0  0  0  0  0
  -13.1200   -2.0922   40.1744 C   0  0  0  0  0
  -12.2002   -1.5975   39.2251 C   0  0  0  0  0
  -11.1904   -2.5528   39.1933 C   0  0  0  0  0
  -10.0674   -2.4470   38.3699 C   0  0  0  0  0
   -9.9855   -1.3153   37.5519 C   0  0  0  0  0
  -10.9853   -0.3408   37.5639 C   0  0  0  0  0
  -10.8654    0.8183   36.7045 C   0  0  0  0  0
  -12.0030    1.5770   36.3855 C   0  0  0  0  0
  -11.8253    2.6798   35.5552 C   0  0  0  0  0
  -13.0476    3.2714   35.3731 N   0  0  0  0  0
  -14.0032    2.5752   36.0667 C   0  0  0  0  0
  -13.3859    1.5200   36.7032 C   0  0  0  0  0
  -13.9507    0.8592   37.2922 H   0  0  0  0  0
  -15.0046    2.8901   36.0408 H   0  0  0  0  0
  -13.3068    4.0869   34.8366 H   0  0  0  0  0
  -10.6710    3.1115   35.0129 N   0  0  0  0  0
   -9.6094    2.3443   35.3534 C   0  0  0  0  0
   -8.3369    2.7082   34.8363 N   0  0  0  0  0
   -7.2990    1.7577   34.6159 C   0  0  0  0  0
   -5.9460    2.4436   34.6331 C   0  0  0  0  0
   -5.1916    2.0945   33.4042 N   0  0  0  0  0
   -3.7045    2.3016   33.5571 C   0  0  0  0  0
   -3.4999    3.3289   33.6303 H   0  0  0  0  0
   -3.3710    1.8155   34.4260 H   0  0  0  0  0
   -3.2081    1.9045   32.7214 H   0  0  0  0  0
   -5.5004    0.7027   32.9096 C   0  0  0  0  0
   -5.4116    0.0213   33.7036 H   0  0  0  0  0
   -6.4798    0.6746   32.5321 H   0  0  0  0  0
   -4.8246    0.4436   32.1488 H   0  0  0  0  0
   -6.0839    3.4837   34.6755 H   0  0  0  0  0
   -5.4065    2.1274   35.4766 H   0  0  0  0  0
   -7.3244    1.0300   35.3725 H   0  0  0  0  0
   -7.4385    1.2972   33.6826 H   0  0  0  0  0
   -8.1409    3.6728   34.6099 H   0  0  0  0  0
   -9.6433    1.2214   36.1692 C   0  0  0  0  0
   -8.7588    0.6934   36.3726 H   0  0  0  0  0
  -12.1037   -0.4664   38.3975 C   0  0  0  0  0
  -12.8603    0.2615   38.4129 H   0  0  0  0  0
   -9.1532   -1.2060   36.9211 H   0  0  0  0  0
   -9.3332   -3.1975   38.3844 H   0  0  0  0  0
  -14.0211   -1.6459   40.4764 H   0  0  0  0  0
  -10.8507   -4.7169   40.4277 C   0  0  0  0  0
   -9.8799   -4.4693   40.7419 H   0  0  0  0  0
  -11.3509   -5.2212   41.2010 H   0  0  0  0  0
  -10.7974   -5.3374   39.5824 H   0  0  0  0  0
  1  2  1  0  0  0
  1  5  1  0  0  0
  1 44  1  0  0  0
  2  3  2  0  0  0
  3  4  1  0  0  0
  3 43  1  0  0  0
  4  5  2  0  0  0
  4 39  1  0  0  0
  5  6  1  0  0  0
  6  7  2  0  0  0
  6 42  1  0  0  0
  7  8  1  0  0  0
  7 41  1  0  0  0
  8  9  1  0  0  0
  8 39  2  0  0  0
  9 10  2  0  0  0
  9 37  1  0  0  0
 10 11  1  0  0  0
 10 14  1  0  0  0
 11 12  1  0  0  0
 11 18  2  0  0  0
 12 13  1  0  0  0
 12 17  1  0  0  0
 13 14  2  0  0  0
 13 16  1  0  0  0
 14 15  1  0  0  0
 18 19  1  0  0  0
 19 20  1  0  0  0
 19 37  2  0  0  0
 20 21  1  0  0  0
 20 36  1  0  0  0
 21 22  1  0  0  0
 21 34  1  0  0  0
 21 35  1  0  0  0
 22 23  1  0  0  0
 22 32  1  0  0  0
 22 33  1  0  0  0
 23 24  1  0  0  0
 23 28  1  0  0  0
 24 25  1  0  0  0
 24 26  1  0  0  0
 24 27  1  0  0  0
 28 29  1  0  0  0
 28 30  1  0  0  0
 28 31  1  0  0  0
 37 38  1  0  0  0
 39 40  1  0  0  0
 44 45  1  0  0  0
 44 46  1  0  0  0
 44 47  1  0  0  0
M  END
> <Pharm. Score>
86.6

> <rmsd>
0.8423927

> <Unaligned Pharm. Score>
66.23

> <Unaligned Pharm. Score (w/o EVS)>
66.23

$$$$
ZINC72454514
XX    ILIB05162103383D

 44 48  0  0  1  0              1 V2000
  -12.6395   -2.6237   40.8594 O   0  0  0  0  0
  -10.9998   -3.9798   40.1685 N   0  0  0  0  0
  -11.6459   -4.5946   41.2248 N   0  0  0  0  0
  -12.4403    4.1012   34.9724 N   0  0  0  0  0
  -10.2216    3.4061   34.3424 N   0  0  0  0  0
   -3.7845    0.5024   35.5769 N   0  0  0  0  0
   -8.0701    2.4931   33.9194 N   0  0  0  0  0
  -11.6129   -2.8331   39.9902 C   0  0  0  0  0
  -12.5952   -3.7675   41.5960 C   0  0  0  0  0
  -11.3563    3.2674   35.0539 C   0  0  0  0  0
   -9.3083    2.4449   34.6143 C   0  0  0  0  0
  -13.4178    3.6697   35.8312 C   0  0  0  0  0
   -4.9692   -0.0296   35.9526 C   0  0  0  0  0
   -3.8052    1.3068   34.4905 C   0  0  0  0  0
  -11.6472    2.2770   35.9874 C   0  0  0  0  0
  -11.3710   -1.7808   39.0339 C   0  0  0  0  0
  -10.6614    1.3065   36.2282 C   0  0  0  0  0
  -10.9032    0.2546   37.1842 C   0  0  0  0  0
   -6.1481    1.0368   34.1835 C   0  0  0  0  0
   -9.4661    1.4027   35.5180 C   0  0  0  0  0
  -12.9550    2.5413   36.4734 C   0  0  0  0  0
   -6.1671    0.2039   35.2967 C   0  0  0  0  0
   -4.9487    1.6028   33.7660 C   0  0  0  0  0
  -12.0903   -0.5882   39.1123 C   0  0  0  0  0
  -10.4179   -1.9556   38.0305 C   0  0  0  0  0
  -11.8565    0.4295   38.1876 C   0  0  0  0  0
  -10.1839   -0.9378   37.1058 C   0  0  0  0  0
   -7.4175    1.3232   33.4346 C   0  0  0  0  0
  -12.5927    4.9234   34.4059 H   0  0  0  0  0
   -7.6189    3.3811   33.7524 H   0  0  0  0  0
  -13.2826   -3.9170   42.3755 H   0  0  0  0  0
  -14.3249    4.1941   35.9003 H   0  0  0  0  0
   -5.0187   -0.6629   36.7887 H   0  0  0  0  0
   -2.9170    1.7504   34.1487 H   0  0  0  0  0
   -8.6929    0.7058   35.6559 H   0  0  0  0  0
  -13.5605    2.0531   37.1788 H   0  0  0  0  0
   -7.0516   -0.2428   35.6440 H   0  0  0  0  0
   -4.8917    2.2366   32.9308 H   0  0  0  0  0
  -12.8078   -0.4566   39.8675 H   0  0  0  0  0
   -9.8765   -2.8533   37.9712 H   0  0  0  0  0
  -12.3980    1.3272   38.2466 H   0  0  0  0  0
   -9.4663   -1.0694   36.3507 H   0  0  0  0  0
   -8.0557    0.4964   33.5424 H   0  0  0  0  0
   -7.1783    1.4507   32.4202 H   0  0  0  0  0
  1  8  1  0  0  0
  1  9  1  0  0  0
  2  3  1  0  0  0
  2  8  2  0  0  0
  3  9  2  0  0  0
  4 10  1  0  0  0
  4 12  1  0  0  0
  4 29  1  0  0  0
  5 10  2  0  0  0
  5 11  1  0  0  0
  6 13  1  0  0  0
  6 14  2  0  0  0
  7 11  1  0  0  0
  7 28  1  0  0  0
  7 30  1  0  0  0
  8 16  1  0  0  0
  9 31  1  0  0  0
 10 15  1  0  0  0
 11 20  2  0  0  0
 12 21  2  0  0  0
 12 32  1  0  0  0
 13 22  2  0  0  0
 13 33  1  0  0  0
 14 23  1  0  0  0
 14 34  1  0  0  0
 15 17  2  0  0  0
 15 21  1  0  0  0
 16 24  2  0  0  0
 16 25  1  0  0  0
 17 18  1  0  0  0
 17 20  1  0  0  0
 18 26  2  0  0  0
 18 27  1  0  0  0
 19 22  1  0  0  0
 19 23  2  0  0  0
 19 28  1  0  0  0
 20 35  1  0  0  0
 21 36  1  0  0  0
 22 37  1  0  0  0
 23 38  1  0  0  0
 24 26  1  0  0  0
 24 39  1  0  0  0
 25 27  2  0  0  0
 25 40  1  0  0  0
 26 41  1  0  0  0
 27 42  1  0  0  0
 28 43  1  0  0  0
 28 44  1  0  0  0
M  END
> <Pharm. Score>
86.01

> <rmsd>
0.9778865

> <Unaligned Pharm. Score>
46.81

> <Unaligned Pharm. Score (w/o EVS)>
46.81

$$$$
ZINC09224703
XX    ILIB05162103383D

 53 57  0  0  1  0              1 V2000
  -14.9916    5.6659   33.8654 O   0  0  0  0  0
   -6.9266   -0.5984   36.0688 O   0  0  0  0  0
  -13.7241    1.3360   37.5923 N   0  0  0  0  0
  -13.1161    0.2926   38.2700 N   0  0  0  0  0
  -11.6674    1.1232   36.8629 N   0  0  0  0  0
  -11.9744    3.2394   35.0720 N   0  0  0  0  0
  -14.1848    3.6029   35.7353 N   0  0  0  0  0
  -14.0941    6.3801   34.6010 C   0  0  0  0  0
  -12.8364    1.8192   36.7541 C   0  0  0  0  0
  -11.8832    0.1799   37.8189 C   0  0  0  0  0
  -12.9985    2.9146   35.8283 C   0  0  0  0  0
  -10.5642    1.4473   36.0717 C   0  0  0  0  0
  -10.7519    2.5217   35.1765 C   0  0  0  0  0
  -13.7691    5.9933   35.9011 C   0  0  0  0  0
   -8.3039    1.1429   35.3329 C   0  0  0  0  0
   -5.8123    0.9228   34.6850 C   0  0  0  0  0
  -13.4982    7.5096   34.0397 C   0  0  0  0  0
   -9.3574    0.7559   36.1594 C   0  0  0  0  0
   -9.6793    2.8884   34.3595 C   0  0  0  0  0
  -12.8481    6.7358   36.6400 C   0  0  0  0  0
   -8.4633    2.2032   34.4373 C   0  0  0  0  0
   -4.5472    0.5233   35.1160 C   0  0  0  0  0
   -5.9386    1.7721   33.5857 C   0  0  0  0  0
  -12.5772    8.2521   34.7787 C   0  0  0  0  0
  -12.2523    7.8655   36.0787 C   0  0  0  0  0
   -3.4085    0.9733   34.4476 C   0  0  0  0  0
   -4.7999    2.2218   32.9175 C   0  0  0  0  0
   -3.5347    1.8224   33.3484 C   0  0  0  0  0
   -7.0316    0.4406   35.4006 C   0  0  0  0  0
  -16.2404    6.2928   33.5807 C   0  0  0  0  0
  -14.4004    4.7805   36.5211 C   0  0  0  0  0
  -10.9185   -0.8236   38.3022 C   0  0  0  0  0
  -14.9090    3.2788   35.1105 H   0  0  0  0  0
  -13.7431    7.8008   33.0611 H   0  0  0  0  0
   -9.2558   -0.0388   36.8381 H   0  0  0  0  0
   -9.7836    3.6833   33.6814 H   0  0  0  0  0
  -12.6033    6.4445   37.6186 H   0  0  0  0  0
   -7.6665    2.4905   33.8167 H   0  0  0  0  0
   -4.4521   -0.1160   35.9435 H   0  0  0  0  0
   -6.8908    2.0727   33.2612 H   0  0  0  0  0
  -12.1285    9.1022   34.3563 H   0  0  0  0  0
  -11.5591    8.4246   36.6350 H   0  0  0  0  0
   -2.4562    0.6727   34.7721 H   0  0  0  0  0
   -4.8950    2.8611   32.0900 H   0  0  0  0  0
   -2.6775    2.1609   32.8454 H   0  0  0  0  0
  -16.7206    5.7785   32.8013 H   0  0  0  0  0
  -16.8458    6.2726   34.4384 H   0  0  0  0  0
  -16.0745    7.2888   33.2927 H   0  0  0  0  0
  -13.9838    4.6455   37.4755 H   0  0  0  0  0
  -15.4315    4.9572   36.6111 H   0  0  0  0  0
  -10.7105   -1.5079   37.5334 H   0  0  0  0  0
  -10.0309   -0.3441   38.5935 H   0  0  0  0  0
  -11.3265   -1.3340   39.1241 H   0  0  0  0  0
  1  8  1  0  0  0
  1 30  1  0  0  0
  2 29  2  0  0  0
  3  4  1  0  0  0
  3  9  2  0  0  0
  4 10  2  0  0  0
  5  9  1  0  0  0
  5 10  1  0  0  0
  5 12  1  0  0  0
  6 11  2  0  0  0
  6 13  1  0  0  0
  7 11  1  0  0  0
  7 31  1  0  0  0
  7 33  1  0  0  0
  8 14  2  0  0  0
  8 17  1  0  0  0
  9 11  1  0  0  0
 10 32  1  0  0  0
 12 13  2  0  0  0
 12 18  1  0  0  0
 13 19  1  0  0  0
 14 20  1  0  0  0
 14 31  1  0  0  0
 15 18  2  0  0  0
 15 21  1  0  0  0
 15 29  1  0  0  0
 16 22  1  0  0  0
 16 23  2  0  0  0
 16 29  1  0  0  0
 17 24  2  0  0  0
 17 34  1  0  0  0
 18 35  1  0  0  0
 19 21  2  0  0  0
 19 36  1  0  0  0
 20 25  2  0  0  0
 20 37  1  0  0  0
 21 38  1  0  0  0
 22 26  2  0  0  0
 22 39  1  0  0  0
 23 27  1  0  0  0
 23 40  1  0  0  0
 24 25  1  0  0  0
 24 41  1  0  0  0
 25 42  1  0  0  0
 26 28  1  0  0  0
 26 43  1  0  0  0
 27 28  2  0  0  0
 27 44  1  0  0  0
 28 45  1  0  0  0
 30 46  1  0  0  0
 30 47  1  0  0  0
 30 48  1  0  0  0
 31 49  1  0  0  0
 31 50  1  0  0  0
 32 51  1  0  0  0
 32 52  1  0  0  0
 32 53  1  0  0  0
M  END
> <Pharm. Score>
85.56

> <rmsd>
1.1728257

> <Unaligned Pharm. Score>
45.74

> <Unaligned Pharm. Score (w/o EVS)>
45.74

$$$$
ZINC72146015
XX    ILIB05162103383D

 43 46  0  0  1  0              1 V2000
  -13.5274   -2.0402   39.6293 S   0  0  0  0  0
  -12.5259    3.3380   34.8589 N   0  0  0  0  0
  -11.5424   -3.6867   39.5854 N   0  0  0  0  0
  -10.1387    3.0797   34.6636 N   0  0  0  0  0
   -7.8171    2.5785   34.6457 N   0  0  0  0  0
   -4.5239    1.5513   33.5867 N   0  0  0  0  0
  -12.7351   -3.4832   40.0943 C   0  0  0  0  0
  -12.1708   -1.6223   38.6509 C   0  0  0  0  0
  -11.3455    2.6929   35.1189 C   0  0  0  0  0
   -9.1369    2.2647   35.0682 C   0  0  0  0  0
  -11.2049   -2.6278   38.7550 C   0  0  0  0  0
  -13.5565    2.6772   35.4758 C   0  0  0  0  0
  -11.6274    1.5915   35.9215 C   0  0  0  0  0
  -10.5478    0.7820   36.3102 C   0  0  0  0  0
  -10.7754   -0.3736   37.1417 C   0  0  0  0  0
  -11.9752   -0.4863   37.8489 C   0  0  0  0  0
   -9.2752    1.1372   35.8664 C   0  0  0  0  0
  -10.0015   -2.4891   38.0301 C   0  0  0  0  0
  -13.0303    1.5910   36.1413 C   0  0  0  0  0
   -9.8000   -1.3608   37.2297 C   0  0  0  0  0
   -6.9036    1.5867   34.1863 C   0  0  0  0  0
   -5.4961    1.9150   34.6471 C   0  0  0  0  0
   -3.0915    1.6810   34.0431 C   0  0  0  0  0
   -4.7883    0.1860   33.0009 C   0  0  0  0  0
  -12.7122    4.1685   34.3153 H   0  0  0  0  0
   -7.4951    3.5356   34.6641 H   0  0  0  0  0
  -13.2052   -4.1510   40.7542 H   0  0  0  0  0
  -14.5393    3.0350   35.3838 H   0  0  0  0  0
  -12.7206    0.2510   37.7922 H   0  0  0  0  0
   -8.4302    0.5700   36.1248 H   0  0  0  0  0
   -9.2620   -3.2317   38.0933 H   0  0  0  0  0
  -13.6622    0.9497   36.6816 H   0  0  0  0  0
   -8.9033   -1.2623   36.6924 H   0  0  0  0  0
   -7.1810    0.6501   34.5715 H   0  0  0  0  0
   -6.9220    1.5530   33.1370 H   0  0  0  0  0
   -5.2807    1.3729   35.5202 H   0  0  0  0  0
   -5.4269    2.9434   34.8476 H   0  0  0  0  0
   -2.8627    2.6946   34.1943 H   0  0  0  0  0
   -2.4533    1.2838   33.3100 H   0  0  0  0  0
   -2.9617    1.1549   34.9425 H   0  0  0  0  0
   -4.7626   -0.5337   33.7650 H   0  0  0  0  0
   -4.0524   -0.0365   32.2857 H   0  0  0  0  0
   -5.7338    0.1781   32.5443 H   0  0  0  0  0
  1  7  1  0  0  0
  1  8  1  0  0  0
  2  9  1  0  0  0
  2 12  1  0  0  0
  2 25  1  0  0  0
  3  7  2  0  0  0
  3 11  1  0  0  0
  4  9  1  0  0  0
  4 10  2  0  0  0
  5 10  1  0  0  0
  5 21  1  0  0  0
  5 26  1  0  0  0
  6 22  1  0  0  0
  6 23  1  0  0  0
  6 24  1  0  0  0
  7 27  1  0  0  0
  8 11  2  0  0  0
  8 16  1  0  0  0
  9 13  2  0  0  0
 10 17  1  0  0  0
 11 18  1  0  0  0
 12 19  2  0  0  0
 12 28  1  0  0  0
 13 14  1  0  0  0
 13 19  1  0  0  0
 14 15  1  0  0  0
 14 17  2  0  0  0
 15 16  2  0  0  0
 15 20  1  0  0  0
 16 29  1  0  0  0
 17 30  1  0  0  0
 18 20  2  0  0  0
 18 31  1  0  0  0
 19 32  1  0  0  0
 20 33  1  0  0  0
 21 22  1  0  0  0
 21 34  1  0  0  0
 21 35  1  0  0  0
 22 36  1  0  0  0
 22 37  1  0  0  0
 23 38  1  0  0  0
 23 39  1  0  0  0
 23 40  1  0  0  0
 24 41  1  0  0  0
 24 42  1  0  0  0
 24 43  1  0  0  0
M  END
> <Pharm. Score>
76.68

> <rmsd>
0.92633677

> <Unaligned Pharm. Score>
76.14

> <Unaligned Pharm. Score (w/o EVS)>
76.14

$$$$
ZINC72143513
XX    ILIB05162103383D

 48 51  0  0  1  0              1 V2000
  -12.6426    3.6846   34.7653 N   0  0  0  0  0
  -10.2830    3.2062   34.6828 N   0  0  0  0  0
  -11.3577   -3.8827   40.6107 N   0  0  0  0  0
   -8.0155    2.5079   34.7951 N   0  0  0  0  0
   -9.0785   -4.5594   40.7218 N   0  0  0  0  0
   -4.8322    1.3211   33.7498 N   0  0  0  0  0
  -11.5325    2.9659   35.1235 C   0  0  0  0  0
   -9.3701    2.3470   35.1928 C   0  0  0  0  0
  -10.0804   -3.6937   40.2164 C   0  0  0  0  0
  -13.7458    3.1714   35.3968 C   0  0  0  0  0
  -12.2771   -3.0337   40.0986 C   0  0  0  0  0
  -11.9350    1.9676   36.0058 C   0  0  0  0  0
  -11.9871   -1.9987   39.2074 C   0  0  0  0  0
  -10.6418   -1.8326   38.8185 C   0  0  0  0  0
  -10.9436    1.1058   36.5022 C   0  0  0  0  0
  -11.2993    0.0480   37.4233 C   0  0  0  0  0
   -9.6745   -2.7011   39.3373 C   0  0  0  0  0
   -9.6319    1.3102   36.0782 C   0  0  0  0  0
  -13.3385    2.1068   36.1717 C   0  0  0  0  0
  -10.3114   -0.8021   37.9231 C   0  0  0  0  0
  -12.9729   -1.1375   38.6979 C   0  0  0  0  0
  -12.6272   -0.1194   37.8098 C   0  0  0  0  0
   -7.1625    1.4017   34.5160 C   0  0  0  0  0
   -5.7250    1.7481   34.8554 C   0  0  0  0  0
   -3.3709    1.4966   34.0829 C   0  0  0  0  0
   -5.1199   -0.0843   33.2815 C   0  0  0  0  0
  -12.7379    4.4771   34.1466 H   0  0  0  0  0
   -7.6235    3.4339   34.7009 H   0  0  0  0  0
   -9.3264   -5.2975   41.3651 H   0  0  0  0  0
   -8.1166   -4.4381   40.4387 H   0  0  0  0  0
  -14.6899    3.6026   35.2377 H   0  0  0  0  0
  -13.2875   -3.1296   40.3675 H   0  0  0  0  0
   -8.6614   -2.6140   39.0753 H   0  0  0  0  0
   -8.8487    0.6976   36.4156 H   0  0  0  0  0
  -14.0409    1.5722   36.7403 H   0  0  0  0  0
   -9.3140   -0.6660   37.6242 H   0  0  0  0  0
  -13.9755   -1.2587   38.9855 H   0  0  0  0  0
  -13.3686    0.5212   37.4324 H   0  0  0  0  0
   -7.2256    1.1596   33.4963 H   0  0  0  0  0
   -7.4614    0.5755   35.0910 H   0  0  0  0  0
   -5.6405    2.7856   34.9928 H   0  0  0  0  0
   -5.4479    1.2542   35.7397 H   0  0  0  0  0
   -2.7854    1.0380   33.3416 H   0  0  0  0  0
   -3.1422    2.5204   34.1259 H   0  0  0  0  0
   -3.1682    1.0533   35.0129 H   0  0  0  0  0
   -6.0504   -0.1076   32.7955 H   0  0  0  0  0
   -4.3691   -0.3917   32.6149 H   0  0  0  0  0
   -5.1405   -0.7313   34.1081 H   0  0  0  0  0
  1  7  1  0  0  0
  1 10  1  0  0  0
  1 27  1  0  0  0
  2  7  1  0  0  0
  2  8  2  0  0  0
  3  9  1  0  0  0
  3 11  2  0  0  0
  4  8  1  0  0  0
  4 23  1  0  0  0
  4 28  1  0  0  0
  5  9  1  0  0  0
  5 29  1  0  0  0
  5 30  1  0  0  0
  6 24  1  0  0  0
  6 25  1  0  0  0
  6 26  1  0  0  0
  7 12  2  0  0  0
  8 18  1  0  0  0
  9 17  2  0  0  0
 10 19  2  0  0  0
 10 31  1  0  0  0
 11 13  1  0  0  0
 11 32  1  0  0  0
 12 15  1  0  0  0
 12 19  1  0  0  0
 13 14  2  0  0  0
 13 21  1  0  0  0
 14 17  1  0  0  0
 14 20  1  0  0  0
 15 16  1  0  0  0
 15 18  2  0  0  0
 16 20  2  0  0  0
 16 22  1  0  0  0
 17 33  1  0  0  0
 18 34  1  0  0  0
 19 35  1  0  0  0
 20 36  1  0  0  0
 21 22  2  0  0  0
 21 37  1  0  0  0
 22 38  1  0  0  0
 23 24  1  0  0  0
 23 39  1  0  0  0
 23 40  1  0  0  0
 24 41  1  0  0  0
 24 42  1  0  0  0
 25 43  1  0  0  0
 25 44  1  0  0  0
 25 45  1  0  0  0
 26 46  1  0  0  0
 26 47  1  0  0  0
 26 48  1  0  0  0
M  END
> <Pharm. Score>
76.65

> <rmsd>
0.70166343

> <Unaligned Pharm. Score>
66.35

> <Unaligned Pharm. Score (w/o EVS)>
66.35

$$$$
ZINC02472298
XX    ILIB05162103383D

 56 60  0  0  1  0              1 V2000
  -13.0162   -2.8804   40.4741 O   0  0  0  0  0
  -10.7414    0.9253   35.9031 N   0  0  0  0  0
  -12.0271    1.3075   35.9824 N   0  0  0  0  0
  -10.6668    3.0396   35.3556 N   0  0  0  0  0
   -8.6198    1.7376   35.2582 N   0  0  0  0  0
  -12.9488    3.4895   35.6222 N   0  0  0  0  0
  -12.3647   -2.2975   39.4308 C   0  0  0  0  0
   -9.9366    1.9517   35.4784 C   0  0  0  0  0
  -11.9234    2.6000   35.6661 C   0  0  0  0  0
  -13.8661   -4.9011   41.4118 C   0  0  0  0  0
  -11.0286   -1.1007   37.2941 C   0  0  0  0  0
   -6.5723    0.4087   35.4551 C   0  0  0  0  0
   -3.8076    0.4615   35.8242 C   0  0  0  0  0
  -12.4031   -0.9122   39.2721 C   0  0  0  0  0
  -11.6584   -3.0845   38.5212 C   0  0  0  0  0
  -14.6587   -4.5151   42.4927 C   0  0  0  0  0
  -13.1369   -6.0889   41.4707 C   0  0  0  0  0
  -11.7350   -0.3140   38.2039 C   0  0  0  0  0
  -10.9903   -2.4860   37.4528 C   0  0  0  0  0
   -5.9485   -0.5941   36.1974 C   0  0  0  0  0
   -5.8138    1.4378   34.8974 C   0  0  0  0  0
   -4.5662   -0.5677   36.3819 C   0  0  0  0  0
   -4.4315    1.4643   35.0820 C   0  0  0  0  0
  -14.7225   -5.3169   43.6323 C   0  0  0  0  0
  -13.2007   -6.8906   42.6104 C   0  0  0  0  0
  -13.9935   -6.5046   43.6912 C   0  0  0  0  0
  -13.7977   -4.0389   40.1858 C   0  0  0  0  0
  -10.3027   -0.4506   36.1339 C   0  0  2  0  0
   -8.0744    0.3802   35.2554 C   0  0  1  0  0
   -2.3297    0.4898   36.0214 C   0  0  0  0  0
   -8.7727   -0.4795   36.3290 C   0  0  0  0  0
   -8.0017    2.5193   35.0935 H   0  0  0  0  0
  -13.8879    3.1887   35.8408 H   0  0  0  0  0
  -12.7724    4.4516   35.3710 H   0  0  0  0  0
  -12.9350   -0.3199   39.9567 H   0  0  0  0  0
  -11.6298   -4.1273   38.6406 H   0  0  0  0  0
  -15.2075   -3.6210   42.4485 H   0  0  0  0  0
  -12.5402   -6.3795   40.6571 H   0  0  0  0  0
  -11.7639    0.7288   38.0847 H   0  0  0  0  0
  -10.4586   -3.0784   36.7681 H   0  0  0  0  0
   -6.5195   -1.3688   36.6172 H   0  0  0  0  0
   -6.2834    2.1927   34.3387 H   0  0  0  0  0
   -4.0966   -1.3226   36.9406 H   0  0  0  0  0
   -3.8605    2.2391   34.6622 H   0  0  0  0  0
  -15.3192   -5.0263   44.4459 H   0  0  0  0  0
  -12.6519   -7.7847   42.6547 H   0  0  0  0  0
  -14.0414   -7.1081   44.5491 H   0  0  0  0  0
  -13.3521   -4.5752   39.4007 H   0  0  0  0  0
  -14.7662   -3.7466   39.9046 H   0  0  0  0  0
  -10.4854   -1.0251   35.2741 H   0  0  0  0  0
   -8.2867   -0.0804   34.3359 H   0  0  0  0  0
   -2.0275    1.4657   36.2637 H   0  0  0  0  0
   -1.8527    0.1851   35.1370 H   0  0  0  0  0
   -2.0682   -0.1616   36.8023 H   0  0  0  0  0
   -8.5337   -0.0997   37.2783 H   0  0  0  0  0
   -8.4285   -1.4684   36.2508 H   0  0  0  0  0
  1  7  1  0  0  0
  1 27  1  0  0  0
  2  3  1  0  0  0
  2  8  1  0  0  0
  2 28  1  0  0  0
  3  9  2  0  0  0
  4  8  2  0  0  0
  4  9  1  0  0  0
  5  8  1  0  0  0
  5 29  1  0  0  0
  5 32  1  0  0  0
  6  9  1  0  0  0
  6 33  1  0  0  0
  6 34  1  0  0  0
  7 14  1  0  0  0
  7 15  2  0  0  0
 10 16  1  0  0  0
 10 17  2  0  0  0
 10 27  1  0  0  0
 11 18  1  0  0  0
 11 19  2  0  0  0
 11 28  1  0  0  0
 12 20  1  0  0  0
 12 21  2  0  0  0
 12 29  1  0  0  0
 13 22  1  0  0  0
 13 23  2  0  0  0
 13 30  1  0  0  0
 14 18  2  0  0  0
 14 35  1  0  0  0
 15 19  1  0  0  0
 15 36  1  0  0  0
 16 24  2  0  0  0
 16 37  1  0  0  0
 17 25  1  0  0  0
 17 38  1  0  0  0
 18 39  1  0  0  0
 19 40  1  0  0  0
 20 22  2  0  0  0
 20 41  1  0  0  0
 21 23  1  0  0  0
 21 42  1  0  0  0
 22 43  1  0  0  0
 23 44  1  0  0  0
 24 26  1  0  0  0
 24 45  1  0  0  0
 25 26  2  0  0  0
 25 46  1  0  0  0
 26 47  1  0  0  0
 27 48  1  0  0  0
 27 49  1  0  0  0
 28 31  1  0  0  0
 28 50  1  0  0  0
 29 31  1  0  0  0
 29 51  1  0  0  0
 30 52  1  0  0  0
 30 53  1  0  0  0
 30 54  1  0  0  0
 31 55  1  0  0  0
 31 56  1  0  0  0
M  END
> <Pharm. Score>
46.69

> <rmsd>
0.9362796

> <Unaligned Pharm. Score>
36.59

> <Unaligned Pharm. Score (w/o EVS)>
36.59

$$$$
ZINC02472295
XX    ILIB05162103383D

 53 57  0  0  1  0              1 V2000
   -1.9760    1.1263   34.2508 F   0  0  0  0  0
  -11.8061   -2.5109   39.9511 O   0  0  0  0  0
  -10.1853    1.4410   35.2278 N   0  0  0  0  0
  -11.4545    1.8015   35.4821 N   0  0  0  0  0
  -10.2070    3.5690   34.7316 N   0  0  0  0  0
   -8.1745    2.3009   34.3369 N   0  0  0  0  0
  -12.4407    3.9776   35.3014 N   0  0  0  0  0
   -3.3149    1.0848   34.2454 C   0  0  0  0  0
  -11.3018   -1.8924   38.8486 C   0  0  0  0  0
   -9.4542    2.4894   34.7304 C   0  0  0  0  0
  -11.4077    3.1029   35.1894 C   0  0  0  0  0
  -12.4987   -4.5796   40.9129 C   0  0  0  0  0
  -10.2668   -0.6231   36.5900 C   0  0  0  0  0
   -6.1033    0.9984   34.2333 C   0  0  0  0  0
   -3.9823    0.0224   34.8548 C   0  0  0  0  0
   -4.0416    2.1041   33.6298 C   0  0  0  0  0
  -11.3604   -0.5031   38.7410 C   0  0  0  0  0
  -10.7257   -2.6474   37.8266 C   0  0  0  0  0
  -11.7305   -5.7399   40.8141 C   0  0  0  0  0
  -13.1507   -4.2746   42.1077 C   0  0  0  0  0
  -10.8429    0.1317   37.6119 C   0  0  0  0  0
  -10.2082   -2.0126   36.6974 C   0  0  0  0  0
   -5.3765   -0.0207   34.8489 C   0  0  0  0  0
   -5.4358    2.0607   33.6238 C   0  0  0  0  0
  -11.6142   -6.5947   41.9102 C   0  0  0  0  0
  -13.0344   -5.1295   43.2037 C   0  0  0  0  0
  -12.2661   -6.2895   43.1050 C   0  0  0  0  0
  -12.6236   -3.6600   39.7339 C   0  0  0  0  0
   -9.7045    0.0665   35.3637 C   0  0  2  0  0
   -7.6182    0.9522   34.2280 C   0  0  1  0  0
   -8.1619    0.0558   35.3594 C   0  0  0  0  0
   -7.5922    3.0956   34.1148 H   0  0  0  0  0
  -13.3402    3.6575   35.6310 H   0  0  0  0  0
  -12.3093    4.9483   35.0552 H   0  0  0  0  0
   -3.4352   -0.7448   35.3181 H   0  0  0  0  0
   -3.5391    2.9038   33.1710 H   0  0  0  0  0
  -11.7942    0.0651   39.5101 H   0  0  0  0  0
  -10.6818   -3.6934   37.9074 H   0  0  0  0  0
  -11.2399   -5.9697   39.9147 H   0  0  0  0  0
  -13.7290   -3.4014   42.1822 H   0  0  0  0  0
  -10.8870    1.1776   37.5312 H   0  0  0  0  0
   -9.7746   -2.5808   35.9283 H   0  0  0  0  0
   -5.8789   -0.8204   35.3078 H   0  0  0  0  0
   -5.9828    2.8279   33.1603 H   0  0  0  0  0
  -11.0359   -7.4679   41.8358 H   0  0  0  0  0
  -13.5252   -4.8999   44.1030 H   0  0  0  0  0
  -12.1784   -6.9330   43.9300 H   0  0  0  0  0
  -12.3072   -4.1553   38.8639 H   0  0  0  0  0
  -13.6242   -3.3616   39.6226 H   0  0  0  0  0
   -9.9899   -0.4892   34.5197 H   0  0  0  0  0
   -7.9420    0.5114   33.3317 H   0  0  0  0  0
   -7.8068    0.4155   36.2798 H   0  0  0  0  0
   -7.8190   -0.9256   35.2114 H   0  0  0  0  0
  1  8  1  0  0  0
  2  9  1  0  0  0
  2 28  1  0  0  0
  3  4  1  0  0  0
  3 10  1  0  0  0
  3 29  1  0  0  0
  4 11  2  0  0  0
  5 10  2  0  0  0
  5 11  1  0  0  0
  6 10  1  0  0  0
  6 30  1  0  0  0
  6 32  1  0  0  0
  7 11  1  0  0  0
  7 33  1  0  0  0
  7 34  1  0  0  0
  8 15  1  0  0  0
  8 16  2  0  0  0
  9 17  1  0  0  0
  9 18  2  0  0  0
 12 19  1  0  0  0
 12 20  2  0  0  0
 12 28  1  0  0  0
 13 21  1  0  0  0
 13 22  2  0  0  0
 13 29  1  0  0  0
 14 23  1  0  0  0
 14 24  2  0  0  0
 14 30  1  0  0  0
 15 23  2  0  0  0
 15 35  1  0  0  0
 16 24  1  0  0  0
 16 36  1  0  0  0
 17 21  2  0  0  0
 17 37  1  0  0  0
 18 22  1  0  0  0
 18 38  1  0  0  0
 19 25  2  0  0  0
 19 39  1  0  0  0
 20 26  1  0  0  0
 20 40  1  0  0  0
 21 41  1  0  0  0
 22 42  1  0  0  0
 23 43  1  0  0  0
 24 44  1  0  0  0
 25 27  1  0  0  0
 25 45  1  0  0  0
 26 27  2  0  0  0
 26 46  1  0  0  0
 27 47  1  0  0  0
 28 48  1  0  0  0
 28 49  1  0  0  0
 29 31  1  0  0  0
 29 50  1  0  0  0
 30 31  1  0  0  0
 30 51  1  0  0  0
 31 52  1  0  0  0
 31 53  1  0  0  0
M  END
> <Pharm. Score>
56.98

> <rmsd>
0.93646747

> <Unaligned Pharm. Score>
36.59

> <Unaligned Pharm. Score (w/o EVS)>
36.59

$$$$
ZINC02638281
XX    ILIB05162103383D

 44 47  0  0  1  0              1 V2000
   -2.9562    2.3811   40.1451 Cl  0  0  0  0  0
   -9.4615    0.3953   36.9259 S   0  0  0  0  0
  -14.2345    2.1231   36.7287 O   0  0  0  0  0
  -10.9835    4.1940   34.2234 O   0  0  0  0  0
   -6.5469    0.0802   35.0367 O   0  0  0  0  0
  -12.7708   -3.4875   41.2388 O   0  0  0  0  0
  -12.0477    1.3065   36.9708 N   0  0  0  0  0
  -12.5911    3.0831   35.4627 N   0  0  0  0  0
   -8.2703    3.1160   34.4428 N   0  0  0  0  0
   -4.1064    1.9356   38.9453 C   0  0  0  0  0
  -10.7335    1.4503   36.5099 C   0  0  0  0  0
   -8.3399    1.2582   35.9682 C   0  0  0  0  0
  -13.0416    2.1429   36.4093 C   0  0  0  0  0
  -11.2896    3.3117   35.0192 C   0  0  0  0  0
  -12.3941    0.3539   37.9784 C   0  0  0  0  0
   -8.9376    2.2988   35.2940 C   0  0  0  0  0
  -10.3309    2.3908   35.5851 C   0  0  0  0  0
   -5.9712    1.2135   37.0000 C   0  0  0  0  0
  -13.0696   -1.5060   39.9450 C   0  0  0  0  0
   -5.2560    1.2335   39.3076 C   0  0  0  0  0
   -3.8893    2.2766   37.6101 C   0  0  0  0  0
  -11.8199   -0.9171   37.9631 C   0  0  0  0  0
  -13.3063    0.6950   38.9771 C   0  0  0  0  0
   -6.1885    0.8726   38.3350 C   0  0  0  0  0
   -4.8216    1.9155   36.6376 C   0  0  0  0  0
  -12.1573   -1.8470   38.9463 C   0  0  0  0  0
  -13.6440   -0.2348   39.9604 C   0  0  0  0  0
   -6.9792    0.8232   35.9484 C   0  0  0  0  0
  -13.4224   -2.4763   40.9691 C   0  0  0  0  0
  -14.6722   -2.2247   41.7617 C   0  0  0  0  0
  -13.3541    3.6321   35.0935 H   0  0  0  0  0
   -8.7596    3.8651   33.9742 H   0  0  0  0  0
   -7.2840    2.9758   34.2773 H   0  0  0  0  0
   -5.4194    0.9767   40.3125 H   0  0  0  0  0
   -3.0240    2.8050   37.3373 H   0  0  0  0  0
  -11.1334   -1.1740   37.2113 H   0  0  0  0  0
  -13.7387    1.6518   38.9887 H   0  0  0  0  0
   -7.0539    0.3442   38.6078 H   0  0  0  0  0
   -4.6580    2.1721   35.6326 H   0  0  0  0  0
  -11.7248   -2.8037   38.9348 H   0  0  0  0  0
  -14.3305    0.0220   40.7122 H   0  0  0  0  0
  -14.5332   -1.3856   42.3773 H   0  0  0  0  0
  -14.8844   -3.0638   42.3563 H   0  0  0  0  0
  -15.4731   -2.0489   41.1059 H   0  0  0  0  0
  1 10  1  0  0  0
  2 11  1  0  0  0
  2 12  1  0  0  0
  3 13  2  0  0  0
  4 14  2  0  0  0
  5 28  2  0  0  0
  6 29  2  0  0  0
  7 11  1  0  0  0
  7 13  1  0  0  0
  7 15  1  0  0  0
  8 13  1  0  0  0
  8 14  1  0  0  0
  8 31  1  0  0  0
  9 16  1  0  0  0
  9 32  1  0  0  0
  9 33  1  0  0  0
 10 20  1  0  0  0
 10 21  2  0  0  0
 11 17  2  0  0  0
 12 16  2  0  0  0
 12 28  1  0  0  0
 14 17  1  0  0  0
 15 22  1  0  0  0
 15 23  2  0  0  0
 16 17  1  0  0  0
 18 24  1  0  0  0
 18 25  2  0  0  0
 18 28  1  0  0  0
 19 26  1  0  0  0
 19 27  2  0  0  0
 19 29  1  0  0  0
 20 24  2  0  0  0
 20 34  1  0  0  0
 21 25  1  0  0  0
 21 35  1  0  0  0
 22 26  2  0  0  0
 22 36  1  0  0  0
 23 27  1  0  0  0
 23 37  1  0  0  0
 24 38  1  0  0  0
 25 39  1  0  0  0
 26 40  1  0  0  0
 27 41  1  0  0  0
 29 30  1  0  0  0
 30 42  1  0  0  0
 30 43  1  0  0  0
 30 44  1  0  0  0
M  END
> <Pharm. Score>
76.25

> <rmsd>
0.9551547

> <Unaligned Pharm. Score>
45.61

> <Unaligned Pharm. Score (w/o EVS)>
45.61

$$$$
ZINC01084111
XX    ILIB05162103383D

 41 43  0  0  1  0              1 V2000
  -13.8217    5.5595   35.5503 S   0  0  0  0  0
   -5.1534    2.4215   31.0665 O   0  0  0  0  0
  -12.2848    0.4924   38.5537 O   0  0  0  0  0
  -11.3590    1.5021   36.5379 N   0  0  0  0  0
  -10.1177    2.7756   34.9116 N   0  0  0  0  0
  -11.9894    3.6845   35.9802 N   0  0  0  0  0
  -12.0576    4.6459   33.8173 N   0  0  0  0  0
   -6.1604    2.2501   31.9657 C   0  0  0  0  0
  -11.6410   -0.6591   38.2087 C   0  0  0  0  0
  -11.1137    2.6024   35.8012 C   0  0  0  0  0
  -10.4982    0.4819   36.3413 C   0  0  0  0  0
   -9.2948    1.7163   34.7651 C   0  0  0  0  0
  -10.7581   -0.6990   37.1293 C   0  0  0  0  0
   -8.2245    1.8987   33.8093 C   0  0  0  0  0
   -7.2124    3.1646   32.0177 C   0  0  0  0  0
   -6.1405    1.1599   32.8357 C   0  0  0  0  0
  -11.8779   -1.8110   38.9588 C   0  0  0  0  0
   -9.4378    0.5326   35.4596 C   0  0  0  0  0
  -10.1121   -1.8907   36.8004 C   0  0  0  0  0
   -8.2446    2.9889   32.9394 C   0  0  0  0  0
   -7.1726    0.9842   33.7575 C   0  0  0  0  0
  -11.2319   -3.0026   38.6298 C   0  0  0  0  0
  -10.3490   -3.0425   37.5505 C   0  0  0  0  0
  -12.5611    4.5579   35.0793 C   0  0  0  0  0
   -3.8210    2.4285   31.5768 C   0  0  0  0  0
  -13.0379    0.6808   37.8767 H   0  0  0  0  0
  -12.3040    3.9315   36.9076 H   0  0  0  0  0
  -12.4431    5.3140   33.1653 H   0  0  0  0  0
  -11.2987    4.0432   33.5332 H   0  0  0  0  0
   -7.2274    3.9853   31.3630 H   0  0  0  0  0
   -5.3486    0.4715   32.7967 H   0  0  0  0  0
  -12.5426   -1.7810   39.7711 H   0  0  0  0  0
   -8.8036   -0.2974   35.3530 H   0  0  0  0  0
   -9.4475   -1.9207   35.9881 H   0  0  0  0  0
   -9.0365    3.6772   32.9784 H   0  0  0  0  0
   -7.1576    0.1635   34.4123 H   0  0  0  0  0
  -11.4100   -3.8697   39.1945 H   0  0  0  0  0
   -9.8627   -3.9396   37.3028 H   0  0  0  0  0
   -3.5876    3.3882   31.9331 H   0  0  0  0  0
   -3.7431    1.7353   32.3616 H   0  0  0  0  0
   -3.1516    2.1670   30.8113 H   0  0  0  0  0
  1 24  2  0  0  0
  2  8  1  0  0  0
  2 25  1  0  0  0
  3  9  1  0  0  0
  3 26  1  0  0  0
  4 10  2  0  0  0
  4 11  1  0  0  0
  5 10  1  0  0  0
  5 12  2  0  0  0
  6 10  1  0  0  0
  6 24  1  0  0  0
  6 27  1  0  0  0
  7 24  1  0  0  0
  7 28  1  0  0  0
  7 29  1  0  0  0
  8 15  1  0  0  0
  8 16  2  0  0  0
  9 13  2  0  0  0
  9 17  1  0  0  0
 11 13  1  0  0  0
 11 18  2  0  0  0
 12 14  1  0  0  0
 12 18  1  0  0  0
 13 19  1  0  0  0
 14 20  1  0  0  0
 14 21  2  0  0  0
 15 20  2  0  0  0
 15 30  1  0  0  0
 16 21  1  0  0  0
 16 31  1  0  0  0
 17 22  2  0  0  0
 17 32  1  0  0  0
 18 33  1  0  0  0
 19 23  2  0  0  0
 19 34  1  0  0  0
 20 35  1  0  0  0
 21 36  1  0  0  0
 22 23  1  0  0  0
 22 37  1  0  0  0
 23 38  1  0  0  0
 25 39  1  0  0  0
 25 40  1  0  0  0
 25 41  1  0  0  0
M  END
> <Pharm. Score>
45.81

> <rmsd>
0.99914956

> <Unaligned Pharm. Score>
35.09

> <Unaligned Pharm. Score (w/o EVS)>
35.09

$$$$
ZINC02472304
XX    ILIB05162103383D

 57 61  0  0  1  0              1 V2000
  -13.1207   -1.2182   39.7134 O   0  0  0  0  0
   -4.1486    2.2544   31.8468 O   0  0  0  0  0
  -11.0528    2.1528   34.7213 N   0  0  0  0  0
  -12.2742    2.6715   34.9327 N   0  0  0  0  0
  -10.8342    4.2251   34.0629 N   0  0  0  0  0
   -8.9557    2.7113   33.7903 N   0  0  0  0  0
  -13.0096    4.9234   34.5742 N   0  0  0  0  0
  -12.5464   -0.7448   38.5739 C   0  0  0  0  0
   -4.8918    1.6687   32.8251 C   0  0  0  0  0
  -10.2073    3.0715   34.1535 C   0  0  0  0  0
  -12.0811    3.9328   34.5416 C   0  0  0  0  0
  -12.1004   -2.9237   41.0304 C   0  0  0  0  0
  -11.3689    0.2228   36.2374 C   0  0  0  0  0
   -7.0432    1.1818   33.8106 C   0  0  0  0  0
   -6.2819    1.7826   32.8081 C   0  0  0  0  0
  -11.4031   -1.3592   38.0631 C   0  0  0  0  0
  -13.1010    0.3534   37.9166 C   0  0  0  0  0
   -4.2631    0.9541   33.8448 C   0  0  0  0  0
  -12.2161   -2.2688   42.2566 C   0  0  0  0  0
  -11.0801   -3.8536   40.8300 C   0  0  0  0  0
  -10.8144   -0.8754   36.8947 C   0  0  0  0  0
  -12.5121    0.8371   36.7482 C   0  0  0  0  0
   -6.4146    0.4672   34.8303 C   0  0  0  0  0
   -5.0245    0.3534   34.8474 C   0  0  0  0  0
  -11.3114   -2.5436   43.2822 C   0  0  0  0  0
  -10.1754   -4.1284   41.8556 C   0  0  0  0  0
  -10.2913   -3.4735   43.0817 C   0  0  0  0  0
  -13.0734   -2.6282   39.9272 C   0  0  0  0  0
   -4.8106    3.1979   31.0057 C   0  0  0  0  0
  -10.7294    0.7480   34.9679 C   0  0  2  0  0
   -8.5538    1.3046   33.7916 C   0  0  1  0  0
   -9.1977    0.5650   34.9822 C   0  0  0  0  0
   -8.2873    3.4165   33.5143 H   0  0  0  0  0
  -13.9401    4.7322   34.9171 H   0  0  0  0  0
  -12.7695    5.8512   34.2555 H   0  0  0  0  0
   -6.7552    2.3206   32.0405 H   0  0  0  0  0
  -10.9857   -2.1858   38.5581 H   0  0  0  0  0
  -13.9617    0.8159   38.3012 H   0  0  0  0  0
   -3.2167    0.8684   33.8577 H   0  0  0  0  0
  -12.9841   -1.5689   42.4076 H   0  0  0  0  0
  -10.9929   -4.3467   39.9071 H   0  0  0  0  0
   -9.9538   -1.3379   36.5101 H   0  0  0  0  0
  -12.9295    1.6637   36.2533 H   0  0  0  0  0
   -6.9878    0.0149   35.5849 H   0  0  0  0  0
   -4.5512   -0.1845   35.6150 H   0  0  0  0  0
  -11.3985   -2.0505   44.2051 H   0  0  0  0  0
   -9.4073   -4.8282   41.7046 H   0  0  0  0  0
   -9.6104   -3.6805   43.8538 H   0  0  0  0  0
  -14.0279   -2.9737   40.1954 H   0  0  0  0  0
  -12.7635   -3.1057   39.0449 H   0  0  0  0  0
   -5.7086    3.5004   31.4580 H   0  0  0  0  0
   -5.0186    2.7535   30.0773 H   0  0  0  0  0
   -4.1917    4.0340   30.8627 H   0  0  0  0  0
  -11.0730    0.1638   34.1660 H   0  0  0  0  0
   -8.9225    0.8345   32.9281 H   0  0  0  0  0
   -8.9666   -0.4570   34.9139 H   0  0  0  0  0
   -8.8071    0.9532   35.8762 H   0  0  0  0  0
  1  8  1  0  0  0
  1 28  1  0  0  0
  2  9  1  0  0  0
  2 29  1  0  0  0
  3  4  1  0  0  0
  3 10  1  0  0  0
  3 30  1  0  0  0
  4 11  2  0  0  0
  5 10  2  0  0  0
  5 11  1  0  0  0
  6 10  1  0  0  0
  6 31  1  0  0  0
  6 33  1  0  0  0
  7 11  1  0  0  0
  7 34  1  0  0  0
  7 35  1  0  0  0
  8 16  1  0  0  0
  8 17  2  0  0  0
  9 15  2  0  0  0
  9 18  1  0  0  0
 12 19  1  0  0  0
 12 20  2  0  0  0
 12 28  1  0  0  0
 13 21  1  0  0  0
 13 22  2  0  0  0
 13 30  1  0  0  0
 14 15  1  0  0  0
 14 23  2  0  0  0
 14 31  1  0  0  0
 15 36  1  0  0  0
 16 21  2  0  0  0
 16 37  1  0  0  0
 17 22  1  0  0  0
 17 38  1  0  0  0
 18 24  2  0  0  0
 18 39  1  0  0  0
 19 25  2  0  0  0
 19 40  1  0  0  0
 20 26  1  0  0  0
 20 41  1  0  0  0
 21 42  1  0  0  0
 22 43  1  0  0  0
 23 24  1  0  0  0
 23 44  1  0  0  0
 24 45  1  0  0  0
 25 27  1  0  0  0
 25 46  1  0  0  0
 26 27  2  0  0  0
 26 47  1  0  0  0
 27 48  1  0  0  0
 28 49  1  0  0  0
 28 50  1  0  0  0
 29 51  1  0  0  0
 29 52  1  0  0  0
 29 53  1  0  0  0
 30 32  1  0  0  0
 30 54  1  0  0  0
 31 32  1  0  0  0
 31 55  1  0  0  0
 32 56  1  0  0  0
 32 57  1  0  0  0
M  END
> <Pharm. Score>
45.86

> <rmsd>
0.9362791

> <Unaligned Pharm. Score>
46.29

> <Unaligned Pharm. Score (w/o EVS)>
46.29

$$$$
ZINC02472318
XX    ILIB05162103383D

 57 61  0  0  1  0              1 V2000
  -11.8063   -2.5108   39.9510 O   0  0  0  0  0
   -1.9542    1.1262   34.2470 O   0  0  0  0  0
  -10.1853    1.4410   35.2279 N   0  0  0  0  0
  -11.4545    1.8014   35.4821 N   0  0  0  0  0
  -10.2070    3.5691   34.7317 N   0  0  0  0  0
   -8.1744    2.3010   34.3373 N   0  0  0  0  0
  -12.4408    3.9775   35.3014 N   0  0  0  0  0
  -11.3018   -1.8925   38.8484 C   0  0  0  0  0
   -3.3146    1.0842   34.2435 C   0  0  0  0  0
   -9.4543    2.4896   34.7307 C   0  0  0  0  0
  -11.4079    3.1028   35.1895 C   0  0  0  0  0
  -12.5338   -4.5648   40.9188 C   0  0  0  0  0
  -10.2666   -0.6231   36.5902 C   0  0  0  0  0
   -6.1029    0.9990   34.2339 C   0  0  0  0  0
  -11.3904   -0.5059   38.7257 C   0  0  0  0  0
  -10.6958   -2.6445   37.8421 C   0  0  0  0  0
   -4.0413    2.1004   33.6231 C   0  0  0  0  0
   -3.9821    0.0254   34.8593 C   0  0  0  0  0
  -11.7623   -5.7244   40.8406 C   0  0  0  0  0
  -13.2096   -4.2551   42.0992 C   0  0  0  0  0
  -10.8727    0.1287   37.5966 C   0  0  0  0  0
  -10.1782   -2.0097   36.7129 C   0  0  0  0  0
   -5.4354    2.0577   33.6181 C   0  0  0  0  0
   -5.3764   -0.0172   34.8546 C   0  0  0  0  0
  -11.6666   -6.5741   41.9427 C   0  0  0  0  0
  -13.1139   -5.1048   43.2011 C   0  0  0  0  0
  -12.3423   -6.2643   43.1229 C   0  0  0  0  0
  -12.6366   -3.6506   39.7334 C   0  0  0  0  0
   -1.2938    0.6802   35.4306 C   0  0  0  0  0
   -9.7043    0.0665   35.3638 C   0  0  2  0  0
   -7.6179    0.9525   34.2284 C   0  0  1  0  0
   -8.1616    0.0559   35.3597 C   0  0  0  0  0
   -7.5920    3.0958   34.1153 H   0  0  0  0  0
  -13.3402    3.6571   35.6308 H   0  0  0  0  0
  -12.3096    4.9482   35.0552 H   0  0  0  0  0
  -11.8467    0.0601   39.4833 H   0  0  0  0  0
  -10.6293   -3.6883   37.9345 H   0  0  0  0  0
   -3.5388    2.8975   33.1599 H   0  0  0  0  0
   -3.4350   -0.7394   35.3265 H   0  0  0  0  0
  -11.2537   -5.9576   39.9521 H   0  0  0  0  0
  -13.7902   -3.3822   42.1582 H   0  0  0  0  0
  -10.9394    1.1725   37.5044 H   0  0  0  0  0
   -9.7219   -2.5757   35.9553 H   0  0  0  0  0
   -5.9824    2.8224   33.1507 H   0  0  0  0  0
   -5.8790   -0.8141   35.3181 H   0  0  0  0  0
  -11.0860   -7.4469   41.8838 H   0  0  0  0  0
  -13.6226   -4.8718   44.0895 H   0  0  0  0  0
  -12.2702   -6.9038   43.9525 H   0  0  0  0  0
  -13.6322   -3.3402   39.6115 H   0  0  0  0  0
  -12.3190   -4.1551   38.8691 H   0  0  0  0  0
   -1.2461    1.4682   36.1229 H   0  0  0  0  0
   -0.3212    0.3653   35.1912 H   0  0  0  0  0
   -1.8282   -0.1212   35.8487 H   0  0  0  0  0
   -9.9895   -0.4892   34.5198 H   0  0  0  0  0
   -7.9415    0.5117   33.3320 H   0  0  0  0  0
   -7.8187   -0.9254   35.2116 H   0  0  0  0  0
   -7.8066    0.4156   36.2801 H   0  0  0  0  0
  1  8  1  0  0  0
  1 28  1  0  0  0
  2  9  1  0  0  0
  2 29  1  0  0  0
  3  4  1  0  0  0
  3 10  1  0  0  0
  3 30  1  0  0  0
  4 11  2  0  0  0
  5 10  2  0  0  0
  5 11  1  0  0  0
  6 10  1  0  0  0
  6 31  1  0  0  0
  6 33  1  0  0  0
  7 11  1  0  0  0
  7 34  1  0  0  0
  7 35  1  0  0  0
  8 15  1  0  0  0
  8 16  2  0  0  0
  9 17  1  0  0  0
  9 18  2  0  0  0
 12 19  1  0  0  0
 12 20  2  0  0  0
 12 28  1  0  0  0
 13 21  1  0  0  0
 13 22  2  0  0  0
 13 30  1  0  0  0
 14 23  1  0  0  0
 14 24  2  0  0  0
 14 31  1  0  0  0
 15 21  2  0  0  0
 15 36  1  0  0  0
 16 22  1  0  0  0
 16 37  1  0  0  0
 17 23  2  0  0  0
 17 38  1  0  0  0
 18 24  1  0  0  0
 18 39  1  0  0  0
 19 25  2  0  0  0
 19 40  1  0  0  0
 20 26  1  0  0  0
 20 41  1  0  0  0
 21 42  1  0  0  0
 22 43  1  0  0  0
 23 44  1  0  0  0
 24 45  1  0  0  0
 25 27  1  0  0  0
 25 46  1  0  0  0
 26 27  2  0  0  0
 26 47  1  0  0  0
 27 48  1  0  0  0
 28 49  1  0  0  0
 28 50  1  0  0  0
 29 51  1  0  0  0
 29 52  1  0  0  0
 29 53  1  0  0  0
 30 32  1  0  0  0
 30 54  1  0  0  0
 31 32  1  0  0  0
 31 55  1  0  0  0
 32 56  1  0  0  0
 32 57  1  0  0  0
M  END
> <Pharm. Score>
56.98

> <rmsd>
0.93627924

> <Unaligned Pharm. Score>
36.55

> <Unaligned Pharm. Score (w/o EVS)>
36.55

$$$$
ZINC23432014
XX    ILIB05162103383D

 42 45  0  0  1  0              1 V2000
   -7.9846   -0.0204   35.3662 F   0  0  0  0  0
   -6.5014    2.9254   31.9512 F   0  0  0  0  0
  -12.0450   -2.7503   40.3438 O   0  0  0  0  0
  -11.1912    3.6811   35.1467 N   0  0  0  0  0
  -11.2891    4.8067   34.3917 N   0  0  0  0  0
  -13.1152    4.6081   35.7371 N   0  0  0  0  0
  -12.4765    2.5372   36.8236 N   0  0  0  0  0
   -9.0969    2.9248   34.3496 N   0  0  0  0  0
   -6.9969    0.5080   34.6304 C   0  0  0  0  0
   -6.2421    2.0071   32.8925 C   0  0  0  0  0
  -11.9220   -1.6909   39.4987 C   0  0  0  0  0
  -12.3210    3.5810   35.9629 C   0  0  0  0  0
  -12.4525    5.3146   34.7866 C   0  0  0  0  0
  -10.1665    2.7279   35.1755 C   0  0  0  0  0
  -11.5334    1.6400   36.8446 C   0  0  0  0  0
  -11.6682    0.4821   37.7675 C   0  0  0  0  0
   -7.2771    1.4633   33.6534 C   0  0  0  0  0
   -5.6818    0.0964   34.8465 C   0  0  0  0  0
   -4.9270    1.5954   33.1085 C   0  0  0  0  0
  -10.8729   -1.6496   38.5804 C   0  0  0  0  0
  -12.8443   -0.6456   39.5514 C   0  0  0  0  0
  -10.2889    1.6846   36.0130 C   0  0  0  0  0
  -10.7461   -0.5633   37.7148 C   0  0  0  0  0
  -12.7173    0.4406   38.6858 C   0  0  0  0  0
   -4.6469    0.6400   34.0855 C   0  0  0  0  0
  -13.1461   -3.6312   40.1255 C   0  0  0  0  0
   -8.6927    1.9064   33.4205 C   0  0  0  0  0
   -8.5819    3.7928   34.3885 H   0  0  0  0  0
  -12.8045    6.2098   34.3657 H   0  0  0  0  0
   -5.4709   -0.6227   35.5819 H   0  0  0  0  0
   -4.1480    2.0045   32.5356 H   0  0  0  0  0
  -10.1787   -2.4364   38.5406 H   0  0  0  0  0
  -13.6341   -0.6767   40.2426 H   0  0  0  0  0
   -9.5339    0.9562   36.0582 H   0  0  0  0  0
   -9.9564   -0.5325   37.0234 H   0  0  0  0  0
  -13.4116    1.2273   38.7256 H   0  0  0  0  0
   -3.6570    0.3301   34.2482 H   0  0  0  0  0
  -13.4852   -4.0027   41.0473 H   0  0  0  0  0
  -13.9237   -3.1087   39.6514 H   0  0  0  0  0
  -12.8397   -4.4304   39.5174 H   0  0  0  0  0
   -9.3193    1.0701   33.5234 H   0  0  0  0  0
   -8.7632    2.2782   32.4411 H   0  0  0  0  0
  1  9  1  0  0  0
  2 10  1  0  0  0
  3 11  1  0  0  0
  3 26  1  0  0  0
  4  5  1  0  0  0
  4 12  1  0  0  0
  4 14  1  0  0  0
  5 13  2  0  0  0
  6 12  2  0  0  0
  6 13  1  0  0  0
  7 12  1  0  0  0
  7 15  2  0  0  0
  8 14  1  0  0  0
  8 27  1  0  0  0
  8 28  1  0  0  0
  9 17  1  0  0  0
  9 18  2  0  0  0
 10 17  2  0  0  0
 10 19  1  0  0  0
 11 20  1  0  0  0
 11 21  2  0  0  0
 13 29  1  0  0  0
 14 22  2  0  0  0
 15 16  1  0  0  0
 15 22  1  0  0  0
 16 23  1  0  0  0
 16 24  2  0  0  0
 17 27  1  0  0  0
 18 25  1  0  0  0
 18 30  1  0  0  0
 19 25  2  0  0  0
 19 31  1  0  0  0
 20 23  2  0  0  0
 20 32  1  0  0  0
 21 24  1  0  0  0
 21 33  1  0  0  0
 22 34  1  0  0  0
 23 35  1  0  0  0
 24 36  1  0  0  0
 25 37  1  0  0  0
 26 38  1  0  0  0
 26 39  1  0  0  0
 26 40  1  0  0  0
 27 41  1  0  0  0
 27 42  1  0  0  0
M  END
> <Pharm. Score>
65.42

> <rmsd>
0.8850626

> <Unaligned Pharm. Score>
66.18

> <Unaligned Pharm. Score (w/o EVS)>
66.18

$$$$
ZINC32541042
XX    ILIB05162103383D

 46 48  0  0  1  0              1 V2000
  -11.5058   -3.7233   40.7890 O   0  0  0  0  0
  -10.8823    3.2543   35.1697 N   0  0  0  0  0
  -10.0150    1.2654   36.1939 N   0  0  0  0  0
  -12.3654    1.7388   36.2923 N   0  0  0  0  0
   -8.5898    2.7647   35.0904 N   0  0  0  0  0
  -13.1832    3.6914   35.2838 N   0  0  0  0  0
   -9.8923    2.4111   35.5046 C   0  0  0  0  0
  -12.0907    2.8537   35.5966 C   0  0  0  0  0
  -11.2797    0.9934   36.5548 C   0  0  0  0  0
   -7.3172    2.5266   35.6426 C   0  0  0  0  0
  -11.4952   -0.2274   37.3002 C   0  0  0  0  0
  -11.9109   -2.5819   38.7378 C   0  0  0  0  0
   -4.7949    2.0542   36.7367 C   0  0  0  0  0
   -6.2600    3.3898   35.3557 C   0  0  0  0  0
   -7.1135    1.4270   36.4764 C   0  0  0  0  0
  -12.7935   -0.6528   37.5818 C   0  0  0  0  0
  -10.4047   -0.9794   37.7374 C   0  0  0  0  0
  -13.0012   -1.8300   38.3007 C   0  0  0  0  0
  -10.6125   -2.1567   38.4563 C   0  0  0  0  0
   -4.9988    3.1538   35.9030 C   0  0  0  0  0
   -5.8523    1.1909   37.0235 C   0  0  0  0  0
  -12.1328   -3.8404   39.5065 C   0  0  1  0  0
  -12.2588   -4.3887   41.7883 C   0  0  0  0  0
   -3.4465    1.8018   37.3216 C   0  0  0  0  0
  -11.5596   -5.0771   38.8129 C   0  0  0  0  0
   -8.6772    3.2838   34.2284 H   0  0  0  0  0
  -14.1147    3.4388   35.5818 H   0  0  0  0  0
  -13.0335    4.5431   34.7621 H   0  0  0  0  0
   -6.4135    4.2173   34.7279 H   0  0  0  0  0
   -7.9094    0.7771   36.6922 H   0  0  0  0  0
  -13.6144   -0.0869   37.2527 H   0  0  0  0  0
   -9.4275   -0.6594   37.5254 H   0  0  0  0  0
  -13.9785   -2.1501   38.5127 H   0  0  0  0  0
   -9.7917   -2.7227   38.7854 H   0  0  0  0  0
   -4.2029    3.8039   35.6874 H   0  0  0  0  0
   -5.6988    0.3633   37.6513 H   0  0  0  0  0
  -13.1629   -3.9995   39.6337 H   0  0  0  0  0
  -13.2455   -4.5195   41.4540 H   0  0  0  0  0
  -12.2601   -3.8134   42.6667 H   0  0  0  0  0
  -11.8285   -5.3262   41.9846 H   0  0  0  0  0
   -3.1671    0.8060   37.1402 H   0  0  0  0  0
   -2.7467    2.4478   36.8794 H   0  0  0  0  0
   -3.4763    1.9739   38.3569 H   0  0  0  0  0
  -12.1034   -5.2701   37.9357 H   0  0  0  0  0
  -11.6294   -5.9035   39.4569 H   0  0  0  0  0
  -10.5524   -4.9068   38.5699 H   0  0  0  0  0
  1 22  1  0  0  0
  1 23  1  0  0  0
  2  7  2  0  0  0
  2  8  1  0  0  0
  3  7  1  0  0  0
  3  9  2  0  0  0
  4  8  2  0  0  0
  4  9  1  0  0  0
  5  7  1  0  0  0
  5 10  1  0  0  0
  5 26  1  0  0  0
  6  8  1  0  0  0
  6 27  1  0  0  0
  6 28  1  0  0  0
  9 11  1  0  0  0
 10 14  1  0  0  0
 10 15  2  0  0  0
 11 16  2  0  0  0
 11 17  1  0  0  0
 12 18  2  0  0  0
 12 19  1  0  0  0
 12 22  1  0  0  0
 13 20  1  0  0  0
 13 21  2  0  0  0
 13 24  1  0  0  0
 14 20  2  0  0  0
 14 29  1  0  0  0
 15 21  1  0  0  0
 15 30  1  0  0  0
 16 18  1  0  0  0
 16 31  1  0  0  0
 17 19  2  0  0  0
 17 32  1  0  0  0
 18 33  1  0  0  0
 19 34  1  0  0  0
 20 35  1  0  0  0
 21 36  1  0  0  0
 22 25  1  0  0  0
 22 37  1  0  0  0
 23 38  1  0  0  0
 23 39  1  0  0  0
 23 40  1  0  0  0
 24 41  1  0  0  0
 24 42  1  0  0  0
 24 43  1  0  0  0
 25 44  1  0  0  0
 25 45  1  0  0  0
 25 46  1  0  0  0
M  END
> <Pharm. Score>
66.25

> <rmsd>
0.9842919

> <Unaligned Pharm. Score>
56.96

> <Unaligned Pharm. Score (w/o EVS)>
56.96

$$$$
ZINC32540567
XX    ILIB05162103383D

 46 48  0  0  1  0              1 V2000
   -4.7888    2.8510   32.4556 O   0  0  0  0  0
  -12.8646    2.5146   36.4155 N   0  0  0  0  0
  -10.7078    1.5580   35.9791 N   0  0  0  0  0
  -11.5100    3.3740   34.6312 N   0  0  0  0  0
  -12.0537    0.7386   37.7154 N   0  0  0  0  0
  -13.6226    4.2869   35.0804 N   0  0  0  0  0
   -5.8016    1.7276   30.6730 N   0  0  0  0  0
  -11.8665    1.6481   36.6517 C   0  0  0  0  0
  -12.6165    3.3465   35.3912 C   0  0  0  0  0
  -10.5994    2.4517   34.9828 C   0  0  0  0  0
  -11.4418   -0.4866   38.0397 C   0  0  0  0  0
   -9.3764    2.4199   34.2105 C   0  0  0  0  0
   -7.0179    2.3589   32.7218 C   0  0  0  0  0
  -10.2289   -2.9153   38.6824 C   0  0  0  0  0
  -10.3284   -0.9219   37.3210 C   0  0  0  0  0
  -11.9489   -1.2658   39.0797 C   0  0  0  0  0
   -8.4085    1.4512   34.4766 C   0  0  0  0  0
   -9.1647    3.3579   33.2002 C   0  0  0  0  0
   -7.2294    1.4207   33.7323 C   0  0  0  0  0
   -7.9856    3.3275   32.4558 C   0  0  0  0  0
   -9.7218   -2.1361   37.6423 C   0  0  0  0  0
  -11.3424   -2.4801   39.4010 C   0  0  0  0  0
   -5.7884    2.3272   31.9458 C   0  0  0  0  0
   -4.6154    1.6712   29.8303 C   0  0  0  0  0
   -7.0064    1.1210   30.1114 C   0  0  0  0  0
   -9.5806   -4.2136   39.0259 C   0  0  0  0  0
  -12.7803    1.1128   38.3087 H   0  0  0  0  0
  -13.4890    4.9362   34.3183 H   0  0  0  0  0
  -14.4761    4.3104   35.6200 H   0  0  0  0  0
   -9.9468   -0.3355   36.5380 H   0  0  0  0  0
  -12.7871   -0.9381   39.6205 H   0  0  0  0  0
   -8.5676    0.7451   35.2372 H   0  0  0  0  0
   -9.8932    4.0872   32.9998 H   0  0  0  0  0
   -6.5009    0.6914   33.9325 H   0  0  0  0  0
   -7.8264    4.0337   31.6953 H   0  0  0  0  0
   -8.8836   -2.4636   37.1015 H   0  0  0  0  0
  -11.7241   -3.0666   40.1838 H   0  0  0  0  0
   -4.8404    1.1563   28.9434 H   0  0  0  0  0
   -4.3036    2.6468   29.5991 H   0  0  0  0  0
   -3.8469    1.1699   30.3408 H   0  0  0  0  0
   -6.7414    0.4854   29.3187 H   0  0  0  0  0
   -7.6452    1.8751   29.7567 H   0  0  0  0  0
   -7.4985    0.5666   30.8550 H   0  0  0  0  0
   -8.5748   -4.0468   39.2773 H   0  0  0  0  0
  -10.0780   -4.6481   39.8421 H   0  0  0  0  0
   -9.6323   -4.8599   38.2000 H   0  0  0  0  0
  1 23  2  0  0  0
  2  8  2  0  0  0
  2  9  1  0  0  0
  3  8  1  0  0  0
  3 10  2  0  0  0
  4  9  2  0  0  0
  4 10  1  0  0  0
  5  8  1  0  0  0
  5 11  1  0  0  0
  5 27  1  0  0  0
  6  9  1  0  0  0
  6 28  1  0  0  0
  6 29  1  0  0  0
  7 23  1  0  0  0
  7 24  1  0  0  0
  7 25  1  0  0  0
 10 12  1  0  0  0
 11 15  1  0  0  0
 11 16  2  0  0  0
 12 17  2  0  0  0
 12 18  1  0  0  0
 13 19  2  0  0  0
 13 20  1  0  0  0
 13 23  1  0  0  0
 14 21  1  0  0  0
 14 22  2  0  0  0
 14 26  1  0  0  0
 15 21  2  0  0  0
 15 30  1  0  0  0
 16 22  1  0  0  0
 16 31  1  0  0  0
 17 19  1  0  0  0
 17 32  1  0  0  0
 18 20  2  0  0  0
 18 33  1  0  0  0
 19 34  1  0  0  0
 20 35  1  0  0  0
 21 36  1  0  0  0
 22 37  1  0  0  0
 24 38  1  0  0  0
 24 39  1  0  0  0
 24 40  1  0  0  0
 25 41  1  0  0  0
 25 42  1  0  0  0
 25 43  1  0  0  0
 26 44  1  0  0  0
 26 45  1  0  0  0
 26 46  1  0  0  0
M  END
> <Pharm. Score>
46.58

> <rmsd>
1.0769471

> <Unaligned Pharm. Score>
46.39

> <Unaligned Pharm. Score (w/o EVS)>
46.39

$$$$
ZINC20939765
XX    ILIB05162103383D

 48 52  0  0  1  0              1 V2000
   -8.4293   -1.7659   37.0802 O   0  0  0  0  0
  -13.9521    2.8510   36.4210 N   0  0  0  0  0
  -14.0293    1.7731   37.2871 N   0  0  0  0  0
  -12.0587    1.7478   36.3466 N   0  0  0  0  0
  -10.9873    3.5106   34.4690 N   0  0  0  0  0
  -11.0772    9.3978   35.1513 N   0  0  0  0  0
  -12.9352    4.7997   34.4291 N   0  0  0  0  0
  -12.7616    2.8156   35.8685 C   0  0  0  0  0
  -12.8845    1.1233   37.2286 C   0  0  0  0  0
  -12.2100    3.7295   34.8968 C   0  0  0  0  0
  -10.7583    1.4922   35.9089 C   0  0  0  0  0
  -10.2457    2.4017   34.9597 C   0  0  0  0  0
  -12.4287    9.4259   35.1642 C   0  0  0  0  0
  -10.5017    8.1755   35.1995 C   0  0  0  0  0
   -8.7228    0.2259   35.8896 C   0  0  0  0  0
   -6.4787   -1.0496   36.0064 C   0  0  0  0  0
  -12.5989    7.0560   35.2713 C   0  0  0  0  0
  -10.0152    0.4107   36.3778 C   0  0  0  0  0
   -8.9476    2.1923   34.4867 C   0  0  0  0  0
  -13.2276    8.2953   35.2227 C   0  0  0  0  0
  -11.2101    6.9863   35.2599 C   0  0  0  0  0
   -8.1912    1.1114   34.9489 C   0  0  0  0  0
   -5.6430   -1.8227   36.8126 C   0  0  0  0  0
   -5.9667   -0.4225   34.8706 C   0  0  0  0  0
   -4.2956   -1.9683   36.4829 C   0  0  0  0  0
   -4.6193   -0.5681   34.5410 C   0  0  0  0  0
   -3.7836   -1.3411   35.3472 C   0  0  0  0  0
   -7.9219   -0.8941   36.3594 C   0  0  0  0  0
  -13.4162    5.7983   35.3358 C   0  0  0  0  0
  -12.5839   -0.0866   38.0143 C   0  0  0  0  0
  -13.1311    4.8842   33.4418 H   0  0  0  0  0
  -12.9351   10.3450   35.1286 H   0  0  0  0  0
   -9.4555    8.0871   35.1923 H   0  0  0  0  0
  -10.4310   -0.2450   37.0847 H   0  0  0  0  0
   -8.5342    2.8491   33.7795 H   0  0  0  0  0
  -14.2732    8.3910   35.2293 H   0  0  0  0  0
  -10.6971    6.0708   35.2954 H   0  0  0  0  0
   -7.2172    0.9675   34.5840 H   0  0  0  0  0
   -6.0284   -2.2950   37.6676 H   0  0  0  0  0
   -6.5957    0.1593   34.2636 H   0  0  0  0  0
   -3.6665   -2.5502   37.0897 H   0  0  0  0  0
   -4.2340   -0.0959   33.6860 H   0  0  0  0  0
   -2.7693   -1.4508   35.0991 H   0  0  0  0  0
  -14.4094    6.0397   35.0958 H   0  0  0  0  0
  -13.3732    5.4291   36.3179 H   0  0  0  0  0
  -13.3701   -0.2727   38.6849 H   0  0  0  0  0
  -12.4745   -0.9061   37.3670 H   0  0  0  0  0
  -11.6928    0.0570   38.5508 H   0  0  0  0  0
  1 28  2  0  0  0
  2  3  1  0  0  0
  2  8  2  0  0  0
  3  9  2  0  0  0
  4  8  1  0  0  0
  4  9  1  0  0  0
  4 11  1  0  0  0
  5 10  2  0  0  0
  5 12  1  0  0  0
  6 13  1  0  0  0
  6 14  2  0  0  0
  7 10  1  0  0  0
  7 29  1  0  0  0
  7 31  1  0  0  0
  8 10  1  0  0  0
  9 30  1  0  0  0
 11 12  2  0  0  0
 11 18  1  0  0  0
 12 19  1  0  0  0
 13 20  2  0  0  0
 13 32  1  0  0  0
 14 21  1  0  0  0
 14 33  1  0  0  0
 15 18  2  0  0  0
 15 22  1  0  0  0
 15 28  1  0  0  0
 16 23  1  0  0  0
 16 24  2  0  0  0
 16 28  1  0  0  0
 17 20  1  0  0  0
 17 21  2  0  0  0
 17 29  1  0  0  0
 18 34  1  0  0  0
 19 22  2  0  0  0
 19 35  1  0  0  0
 20 36  1  0  0  0
 21 37  1  0  0  0
 22 38  1  0  0  0
 23 25  2  0  0  0
 23 39  1  0  0  0
 24 26  1  0  0  0
 24 40  1  0  0  0
 25 27  1  0  0  0
 25 41  1  0  0  0
 26 27  2  0  0  0
 26 42  1  0  0  0
 27 43  1  0  0  0
 29 44  1  0  0  0
 29 45  1  0  0  0
 30 46  1  0  0  0
 30 47  1  0  0  0
 30 48  1  0  0  0
M  END
> <Pharm. Score>
65.83

> <rmsd>
1.0711185

> <Unaligned Pharm. Score>
45.6

> <Unaligned Pharm. Score (w/o EVS)>
45.6

$$$$
ZINC20939758
XX    ILIB05162103383D

 57 61  0  0  1  0              1 V2000
   -9.8643   -2.0672   38.7560 O   0  0  0  0  0
  -11.1188    3.7508   34.6367 N   0  0  0  0  0
   -9.8565    3.1841   34.6905 N   0  0  0  0  0
  -11.1953    1.9766   35.9226 N   0  0  0  0  0
  -13.9158    2.3319   36.4253 N   0  0  0  0  0
  -14.0092    4.2440   35.0865 N   0  0  0  0  0
  -16.8926    6.1780   36.5168 N   0  0  0  0  0
  -11.9051    3.0098   35.3830 C   0  0  0  0  0
   -9.9220    2.1211   35.4665 C   0  0  0  0  0
  -13.3129    3.1965   35.6412 C   0  0  0  0  0
  -11.8110    1.0440   36.7589 C   0  0  0  0  0
  -13.1869    1.2516   36.9933 C   0  0  0  0  0
  -11.8035   -0.9087   38.1494 C   0  0  0  0  0
  -11.8241   -3.1720   39.3962 C   0  0  0  0  0
  -11.1137   -0.0215   37.3250 C   0  0  0  0  0
  -13.8534    0.3472   37.8240 C   0  0  0  0  0
  -13.1659   -0.7259   38.3985 C   0  0  0  0  0
  -11.2368   -4.4366   39.4299 C   0  0  0  0  0
  -13.0841   -2.9728   39.9608 C   0  0  0  0  0
  -11.9093   -5.5023   40.0280 C   0  0  0  0  0
  -13.7567   -4.0385   40.5588 C   0  0  0  0  0
  -13.1691   -5.3031   40.5925 C   0  0  0  0  0
  -11.1036   -2.0308   38.7558 C   0  0  0  0  0
  -16.1469    5.3495   35.4724 C   0  0  1  0  0
  -14.7041    5.1741   35.9247 C   0  0  0  0  0
  -18.1069    5.3835   36.9397 C   0  0  0  0  0
  -17.2087    7.5741   36.0826 C   0  0  0  0  0
   -8.7727    1.2492   35.7670 C   0  0  0  0  0
  -16.9211    4.0334   35.4006 C   0  0  0  0  0
  -17.6733    3.9519   36.7156 C   0  0  0  0  0
  -17.8234    8.3291   37.2409 C   0  0  0  0  0
  -14.0323    4.3603   34.0835 H   0  0  0  0  0
  -10.0897   -0.1431   37.1271 H   0  0  0  0  0
  -14.8774    0.4713   38.0204 H   0  0  0  0  0
  -13.6805   -1.3970   39.0208 H   0  0  0  0  0
  -10.2884   -4.5865   39.0050 H   0  0  0  0  0
  -13.5261   -2.0207   39.9355 H   0  0  0  0  0
  -11.4671   -6.4543   40.0533 H   0  0  0  0  0
  -14.7052   -3.8886   40.9836 H   0  0  0  0  0
  -13.6753   -6.1052   41.0430 H   0  0  0  0  0
  -16.1721    5.8468   34.5479 H   0  0  0  0  0
  -14.7033    4.8221   36.9140 H   0  0  0  0  0
  -14.2245    6.1073   35.8849 H   0  0  0  0  0
  -18.3243    5.5860   37.9468 H   0  0  0  0  0
  -18.9275    5.6543   36.3432 H   0  0  0  0  0
  -16.3259    8.0542   35.7781 H   0  0  0  0  0
  -17.8864    7.5464   35.2810 H   0  0  0  0  0
   -8.2260    1.6540   36.5668 H   0  0  0  0  0
   -8.1553    1.1799   34.9206 H   0  0  0  0  0
   -9.1180    0.2925   36.0277 H   0  0  0  0  0
  -17.5752    4.0564   34.5796 H   0  0  0  0  0
  -16.2468    3.2363   35.2887 H   0  0  0  0  0
  -17.0646    3.6416   37.5129 H   0  0  0  0  0
  -18.5205    3.3340   36.6610 H   0  0  0  0  0
  -18.6386    7.7862   37.6193 H   0  0  0  0  0
  -18.1525    9.2697   36.9103 H   0  0  0  0  0
  -17.1056    8.4552   37.9968 H   0  0  0  0  0
  1 23  2  0  0  0
  2  3  1  0  0  0
  2  8  2  0  0  0
  3  9  2  0  0  0
  4  8  1  0  0  0
  4  9  1  0  0  0
  4 11  1  0  0  0
  5 10  2  0  0  0
  5 12  1  0  0  0
  6 10  1  0  0  0
  6 25  1  0  0  0
  6 32  1  0  0  0
  7 24  1  0  0  0
  7 26  1  0  0  0
  7 27  1  0  0  0
  8 10  1  0  0  0
  9 28  1  0  0  0
 11 12  2  0  0  0
 11 15  1  0  0  0
 12 16  1  0  0  0
 13 15  2  0  0  0
 13 17  1  0  0  0
 13 23  1  0  0  0
 14 18  1  0  0  0
 14 19  2  0  0  0
 14 23  1  0  0  0
 15 33  1  0  0  0
 16 17  2  0  0  0
 16 34  1  0  0  0
 17 35  1  0  0  0
 18 20  2  0  0  0
 18 36  1  0  0  0
 19 21  1  0  0  0
 19 37  1  0  0  0
 20 22  1  0  0  0
 20 38  1  0  0  0
 21 22  2  0  0  0
 21 39  1  0  0  0
 22 40  1  0  0  0
 24 25  1  0  0  0
 24 29  1  0  0  0
 24 41  1  0  0  0
 25 42  1  0  0  0
 25 43  1  0  0  0
 26 30  1  0  0  0
 26 44  1  0  0  0
 26 45  1  0  0  0
 27 31  1  0  0  0
 27 46  1  0  0  0
 27 47  1  0  0  0
 28 48  1  0  0  0
 28 49  1  0  0  0
 28 50  1  0  0  0
 29 30  1  0  0  0
 29 51  1  0  0  0
 29 52  1  0  0  0
 30 53  1  0  0  0
 30 54  1  0  0  0
 31 55  1  0  0  0
 31 56  1  0  0  0
 31 57  1  0  0  0
M  END
> <Pharm. Score>
67.66

> <rmsd>
0.9593973

> <Unaligned Pharm. Score>
65.72

> <Unaligned Pharm. Score (w/o EVS)>
65.72

$$$$
ZINC19124027
XX    ILIB05162103383D

 56 60  0  0  1  0              1 V2000
  -15.3857    0.6387   32.1283 F   0  0  0  0  0
   -7.6553    1.2231   34.9158 O   0  0  0  0  0
  -12.6741   -4.7773   41.0913 O   0  0  0  0  0
   -6.5947    0.4359   35.3479 N   0  0  0  0  0
  -12.1777    2.3915   35.6976 N   0  0  0  0  0
  -10.7760    3.8833   34.4257 N   0  0  0  0  0
  -12.5417   -0.4520   38.6833 N   0  0  0  0  0
  -12.1705   -2.7218   39.2419 N   0  0  0  0  0
  -13.0866    4.2541   34.5975 N   0  0  0  0  0
  -15.1772    1.9347   31.8617 C   0  0  0  0  0
   -8.6371    1.2061   35.8533 C   0  0  0  0  0
  -11.9577    3.4711   34.9228 C   0  0  0  0  0
  -11.9004   -1.6150   38.4304 C   0  0  0  0  0
  -11.0778    1.6663   35.9886 C   0  0  0  0  0
   -6.9752   -0.0324   36.5399 C   0  0  0  0  0
   -9.7193    3.1124   34.7559 C   0  0  0  0  0
  -12.2459    0.5859   37.8691 C   0  0  0  0  0
   -9.8109    1.9816   35.5416 C   0  0  0  0  0
  -11.3439    0.5158   36.8197 C   0  0  0  0  0
  -14.1425    4.0456   32.4193 C   0  0  0  0  0
  -14.3599    2.6960   32.6971 C   0  0  0  0  0
  -15.7774    2.5230   30.7483 C   0  0  0  0  0
   -8.2538    0.4209   36.9081 C   0  0  0  0  0
  -10.9825   -1.7882   37.4070 C   0  0  0  0  0
  -10.7044   -0.6974   36.5909 C   0  0  0  0  0
  -14.7425    4.6337   31.3059 C   0  0  0  0  0
  -15.5599    3.8725   30.4704 C   0  0  0  0  0
  -13.7715   -4.1167   40.4611 C   0  0  0  0  0
  -11.5757   -4.8986   40.1881 C   0  0  0  0  0
  -13.2630    4.8659   33.3177 C   0  0  0  0  0
  -13.3843   -2.6952   40.0694 C   0  0  0  0  0
  -11.0647   -3.5212   39.7806 C   0  0  0  0  0
   -6.0792   -0.9171   37.3019 C   0  0  0  0  0
  -13.8135    4.4017   35.2831 H   0  0  0  0  0
   -8.7595    3.3613   34.4104 H   0  0  0  0  0
  -12.7111    1.5160   38.0141 H   0  0  0  0  0
  -13.9082    2.2532   33.5352 H   0  0  0  0  0
  -16.3928    1.9500   30.1195 H   0  0  0  0  0
   -8.8961    0.2944   37.7290 H   0  0  0  0  0
  -10.5215   -2.7213   37.2676 H   0  0  0  0  0
  -10.0147   -0.7872   35.8043 H   0  0  0  0  0
  -14.5789    5.6496   31.0966 H   0  0  0  0  0
  -16.0115    4.3153   29.6322 H   0  0  0  0  0
  -14.5847   -4.0785   41.1243 H   0  0  0  0  0
  -14.0489   -4.6452   39.5972 H   0  0  0  0  0
  -10.7969   -5.4273   40.6533 H   0  0  0  0  0
  -11.8851   -5.4156   39.3282 H   0  0  0  0  0
  -12.3290    4.9763   32.8508 H   0  0  0  0  0
  -13.7073    5.8095   33.4392 H   0  0  0  0  0
  -14.1691   -2.2584   39.5257 H   0  0  0  0  0
  -13.2039   -2.1324   40.9373 H   0  0  0  0  0
  -10.3212   -3.6292   39.0471 H   0  0  0  0  0
  -10.6602   -3.0379   40.6204 H   0  0  0  0  0
   -5.0817   -0.6399   37.1268 H   0  0  0  0  0
   -6.2915   -0.8318   38.3266 H   0  0  0  0  0
   -6.2253   -1.9108   36.9958 H   0  0  0  0  0
  1 10  1  0  0  0
  2  4  1  0  0  0
  2 11  1  0  0  0
  3 28  1  0  0  0
  3 29  1  0  0  0
  4 15  2  0  0  0
  5 12  2  0  0  0
  5 14  1  0  0  0
  6 12  1  0  0  0
  6 16  2  0  0  0
  7 13  2  0  0  0
  7 17  1  0  0  0
  8 13  1  0  0  0
  8 31  1  0  0  0
  8 32  1  0  0  0
  9 12  1  0  0  0
  9 30  1  0  0  0
  9 34  1  0  0  0
 10 21  1  0  0  0
 10 22  2  0  0  0
 11 18  1  0  0  0
 11 23  2  0  0  0
 13 24  1  0  0  0
 14 18  2  0  0  0
 14 19  1  0  0  0
 15 23  1  0  0  0
 15 33  1  0  0  0
 16 18  1  0  0  0
 16 35  1  0  0  0
 17 19  2  0  0  0
 17 36  1  0  0  0
 19 25  1  0  0  0
 20 21  2  0  0  0
 20 26  1  0  0  0
 20 30  1  0  0  0
 21 37  1  0  0  0
 22 27  1  0  0  0
 22 38  1  0  0  0
 23 39  1  0  0  0
 24 25  2  0  0  0
 24 40  1  0  0  0
 25 41  1  0  0  0
 26 27  2  0  0  0
 26 42  1  0  0  0
 27 43  1  0  0  0
 28 31  1  0  0  0
 28 44  1  0  0  0
 28 45  1  0  0  0
 29 32  1  0  0  0
 29 46  1  0  0  0
 29 47  1  0  0  0
 30 48  1  0  0  0
 30 49  1  0  0  0
 31 50  1  0  0  0
 31 51  1  0  0  0
 32 52  1  0  0  0
 32 53  1  0  0  0
 33 54  1  0  0  0
 33 55  1  0  0  0
 33 56  1  0  0  0
M  END
> <Pharm. Score>
55.09

> <rmsd>
1.1010164

> <Unaligned Pharm. Score>
45.98

> <Unaligned Pharm. Score (w/o EVS)>
45.98

$$$$
ZINC13131981
XX    ILIB05162103383D

 43 46  0  0  1  0              1 V2000
   -3.1174   -1.1114   35.6698 Cl  0  0  0  0  0
   -1.9528    1.3409   33.9098 Cl  0  0  0  0  0
  -11.1684   -2.9180   40.8423 O   0  0  0  0  0
  -10.3893    0.9112   35.8136 N   0  0  0  0  0
  -11.6536    1.1759   36.1839 N   0  0  0  0  0
  -10.6509    3.0015   35.2323 N   0  0  0  0  0
   -8.5633    1.8910   34.6812 N   0  0  0  0  0
  -12.8434    3.2485   36.0154 N   0  0  0  0  0
   -4.1514    0.0312   34.8865 C   0  0  0  0  0
   -3.6492    1.0871   34.1258 C   0  0  0  0  0
  -10.8337   -2.3144   39.6691 C   0  0  0  0  0
   -9.8087    1.9907   35.1983 C   0  0  0  0  0
  -11.7530    2.4596   35.8329 C   0  0  0  0  0
  -10.1482   -1.0794   37.2634 C   0  0  0  0  0
   -6.4050    0.7647   34.4165 C   0  0  0  0  0
   -5.5293   -0.1299   35.0318 C   0  0  0  0  0
   -4.5248    1.9818   33.5105 C   0  0  0  0  0
  -10.2254   -3.0534   38.6545 C   0  0  0  0  0
  -11.0992   -0.9580   39.4811 C   0  0  0  0  0
   -9.8828   -2.4359   37.4517 C   0  0  0  0  0
  -10.7564   -0.3406   38.2781 C   0  0  0  0  0
   -5.9027    1.8205   33.6558 C   0  0  0  0  0
  -12.0561   -4.0327   40.7687 C   0  0  0  0  0
   -9.7762   -0.4089   35.9566 C   0  0  2  0  0
   -7.9024    0.5904   34.5719 C   0  0  1  0  0
   -8.2470   -0.2894   35.7911 C   0  0  0  0  0
   -8.0797    2.7197   34.3656 H   0  0  0  0  0
  -12.8248    4.2128   35.7157 H   0  0  0  0  0
  -13.6728    2.8709   36.4507 H   0  0  0  0  0
   -5.9074   -0.9246   35.6045 H   0  0  0  0  0
   -4.1466    2.7767   32.9380 H   0  0  0  0  0
  -10.0254   -4.0743   38.7962 H   0  0  0  0  0
  -11.5570   -0.4018   40.2450 H   0  0  0  0  0
   -9.4251   -2.9923   36.6878 H   0  0  0  0  0
  -10.9563    0.6804   38.1366 H   0  0  0  0  0
   -6.5618    2.4939   33.1924 H   0  0  0  0  0
  -12.4703   -4.2135   41.7165 H   0  0  0  0  0
  -12.8250   -3.8233   40.0850 H   0  0  0  0  0
  -11.5264   -4.8816   40.4506 H   0  0  0  0  0
  -10.0942   -1.0295   35.1716 H   0  0  0  0  0
   -8.2741    0.0782   33.7340 H   0  0  0  0  0
   -7.8345   -1.2445   35.6497 H   0  0  0  0  0
   -7.8346    0.1459   36.6530 H   0  0  0  0  0
  1  9  1  0  0  0
  2 10  1  0  0  0
  3 11  1  0  0  0
  3 23  1  0  0  0
  4  5  1  0  0  0
  4 12  1  0  0  0
  4 24  1  0  0  0
  5 13  2  0  0  0
  6 12  2  0  0  0
  6 13  1  0  0  0
  7 12  1  0  0  0
  7 25  1  0  0  0
  7 27  1  0  0  0
  8 13  1  0  0  0
  8 28  1  0  0  0
  8 29  1  0  0  0
  9 10  2  0  0  0
  9 16  1  0  0  0
 10 17  1  0  0  0
 11 18  1  0  0  0
 11 19  2  0  0  0
 14 20  1  0  0  0
 14 21  2  0  0  0
 14 24  1  0  0  0
 15 16  2  0  0  0
 15 22  1  0  0  0
 15 25  1  0  0  0
 16 30  1  0  0  0
 17 22  2  0  0  0
 17 31  1  0  0  0
 18 20  2  0  0  0
 18 32  1  0  0  0
 19 21  1  0  0  0
 19 33  1  0  0  0
 20 34  1  0  0  0
 21 35  1  0  0  0
 22 36  1  0  0  0
 23 37  1  0  0  0
 23 38  1  0  0  0
 23 39  1  0  0  0
 24 26  1  0  0  0
 24 40  1  0  0  0
 25 26  1  0  0  0
 25 41  1  0  0  0
 26 42  1  0  0  0
 26 43  1  0  0  0
M  END
> <Pharm. Score>
65.89

> <rmsd>
0.93648016

> <Unaligned Pharm. Score>
36.51

> <Unaligned Pharm. Score (w/o EVS)>
36.51

$$$$
ZINC09728763
XX    ILIB05162103383D

 50 53  0  0  1  0              1 V2000
  -11.4765   -1.1771   38.6074 S   0  0  0  0  0
  -12.7634    1.5370   38.1116 S   0  0  0  0  0
  -13.9994   -0.7568   38.7620 N   0  0  0  0  0
  -13.8256   -2.0985   39.0539 N   0  0  0  0  0
  -10.5891    4.1121   34.2162 N   0  0  0  0  0
  -10.8971    2.0523   35.4075 N   0  0  0  0  0
  -12.7418    3.5598   35.1205 N   0  0  0  0  0
   -8.8051    2.6192   34.5131 N   0  0  0  0  0
  -12.0726   -3.7240   39.2511 N   0  0  0  0  0
  -12.4105    5.5660   33.9528 N   0  0  0  0  0
  -12.8539   -0.1598   38.5107 C   0  0  0  0  0
  -12.5577   -2.4475   39.0066 C   0  0  0  0  0
  -10.1629    2.9436   34.7223 C   0  0  0  0  0
  -11.8885    4.3534   34.4538 C   0  0  0  0  0
  -12.1765    2.4269   35.5682 C   0  0  0  0  0
   -7.9715    1.6189   35.0472 C   0  0  0  0  0
   -6.6799    1.4291   34.5556 C   0  0  0  0  0
  -11.5939   -5.7132   37.9288 C   0  0  0  0  0
   -8.4501    0.8125   36.0800 C   0  0  0  0  0
   -5.8671    0.4330   35.0967 C   0  0  0  0  0
  -11.6393   -6.8013   38.8006 C   0  0  0  0  0
  -12.0041   -5.8635   36.6041 C   0  0  0  0  0
   -7.6372   -0.1835   36.6210 C   0  0  0  0  0
   -6.3458   -0.3733   36.1294 C   0  0  0  0  0
  -12.0946   -8.0394   38.3475 C   0  0  0  0  0
  -12.4593   -7.1016   36.1511 C   0  0  0  0  0
  -12.5046   -8.1897   37.0228 C   0  0  0  0  0
  -13.0673    1.4809   36.3254 C   0  0  0  0  0
  -11.1074   -4.3891   38.4134 C   0  0  0  0  0
   -6.1418    2.2786   33.4507 C   0  0  0  0  0
   -8.4375    3.2767   33.8401 H   0  0  0  0  0
  -12.3964   -4.2418   40.0555 H   0  0  0  0  0
  -11.8125    6.2010   33.4435 H   0  0  0  0  0
  -13.3817    5.7984   34.1038 H   0  0  0  0  0
   -9.4223    0.9553   36.4500 H   0  0  0  0  0
   -4.8949    0.2902   34.7267 H   0  0  0  0  0
  -11.3308   -6.6882   39.7979 H   0  0  0  0  0
  -11.9702   -5.0445   35.9479 H   0  0  0  0  0
   -7.9975   -0.7904   37.3985 H   0  0  0  0  0
   -5.7340   -1.1232   36.5366 H   0  0  0  0  0
  -12.1287   -8.8584   39.0036 H   0  0  0  0  0
  -12.7679   -7.2147   35.1538 H   0  0  0  0  0
  -12.8473   -9.1217   36.6818 H   0  0  0  0  0
  -14.0646    1.7461   36.1315 H   0  0  0  0  0
  -12.8882    0.5092   35.9702 H   0  0  0  0  0
  -10.2226   -4.5472   38.9564 H   0  0  0  0  0
  -10.9014   -3.7920   37.5747 H   0  0  0  0  0
   -5.9891    3.2558   33.8032 H   0  0  0  0  0
   -6.8285    2.2963   32.6566 H   0  0  0  0  0
   -5.2296    1.8808   33.1158 H   0  0  0  0  0
  1 11  1  0  0  0
  1 12  1  0  0  0
  2 11  1  0  0  0
  2 28  1  0  0  0
  3  4  1  0  0  0
  3 11  2  0  0  0
  4 12  2  0  0  0
  5 13  2  0  0  0
  5 14  1  0  0  0
  6 13  1  0  0  0
  6 15  2  0  0  0
  7 14  2  0  0  0
  7 15  1  0  0  0
  8 13  1  0  0  0
  8 16  1  0  0  0
  8 31  1  0  0  0
  9 12  1  0  0  0
  9 29  1  0  0  0
  9 32  1  0  0  0
 10 14  1  0  0  0
 10 33  1  0  0  0
 10 34  1  0  0  0
 15 28  1  0  0  0
 16 17  2  0  0  0
 16 19  1  0  0  0
 17 20  1  0  0  0
 17 30  1  0  0  0
 18 21  1  0  0  0
 18 22  2  0  0  0
 18 29  1  0  0  0
 19 23  2  0  0  0
 19 35  1  0  0  0
 20 24  2  0  0  0
 20 36  1  0  0  0
 21 25  2  0  0  0
 21 37  1  0  0  0
 22 26  1  0  0  0
 22 38  1  0  0  0
 23 24  1  0  0  0
 23 39  1  0  0  0
 24 40  1  0  0  0
 25 27  1  0  0  0
 25 41  1  0  0  0
 26 27  2  0  0  0
 26 42  1  0  0  0
 27 43  1  0  0  0
 28 44  1  0  0  0
 28 45  1  0  0  0
 29 46  1  0  0  0
 29 47  1  0  0  0
 30 48  1  0  0  0
 30 49  1  0  0  0
 30 50  1  0  0  0
M  END
> <Pharm. Score>
35.76

> <rmsd>
1.1008482

> <Unaligned Pharm. Score>
57.05

> <Unaligned Pharm. Score (w/o EVS)>
57.05

$$$$
ZINC13131298
XX    ILIB05162103383D

 47 50  0  0  1  0              1 V2000
   -8.2818   -1.1372   36.0127 Cl  0  0  0  0  0
   -3.1320   -0.4931   34.5860 Cl  0  0  0  0  0
  -13.1236   -1.4382   38.7548 O   0  0  0  0  0
  -14.0471    0.7886   40.1367 O   0  0  0  0  0
  -11.1126    2.8306   34.8690 N   0  0  0  0  0
  -12.1760    3.6484   34.9438 N   0  0  0  0  0
  -10.3833    4.6799   33.9610 N   0  0  0  0  0
   -8.9225    2.7407   33.9903 N   0  0  0  0  0
  -12.3352    5.9383   34.2571 N   0  0  0  0  0
   -7.0913   -0.2695   35.1133 C   0  0  0  0  0
   -4.7756    0.0066   34.4818 C   0  0  0  0  0
  -12.8850   -0.1827   38.2827 C   0  0  0  0  0
  -13.3490    0.9350   38.9764 C   0  0  0  0  0
  -10.0572    3.4345   34.2343 C   0  0  0  0  0
  -11.6740    4.7611   34.4041 C   0  0  0  0  0
   -7.4391    0.8193   34.3136 C   0  0  0  0  0
  -11.9210    1.2604   36.6020 C   0  0  0  0  0
   -5.7596   -0.6760   35.1972 C   0  0  0  0  0
   -5.1236    1.0953   33.6822 C   0  0  0  0  0
  -12.1711   -0.0200   37.0957 C   0  0  0  0  0
  -13.0989    2.2153   38.4829 C   0  0  0  0  0
   -6.4552    1.5016   33.5981 C   0  0  0  0  0
  -12.3850    2.3780   37.2957 C   0  0  0  0  0
  -12.2005   -2.4584   38.3787 C   0  0  0  0  0
  -15.4479    0.5442   40.0240 C   0  0  0  0  0
  -11.1451    1.4374   35.3126 C   0  0  2  0  0
   -8.8739    1.2930   34.1956 C   0  0  1  0  0
   -9.7042    0.9000   35.4347 C   0  0  0  0  0
   -8.0970    3.2219   33.6627 H   0  0  0  0  0
  -13.2917    6.0228   34.5700 H   0  0  0  0  0
  -11.8702    6.7293   33.8350 H   0  0  0  0  0
   -5.4978   -1.4957   35.7990 H   0  0  0  0  0
   -4.3831    1.6091   33.1435 H   0  0  0  0  0
  -11.8218   -0.8614   36.5735 H   0  0  0  0  0
  -13.4481    3.0567   39.0051 H   0  0  0  0  0
   -6.7170    2.3211   32.9961 H   0  0  0  0  0
  -12.1969    3.3420   36.9243 H   0  0  0  0  0
  -12.1006   -3.1472   39.1649 H   0  0  0  0  0
  -11.2663   -2.0261   38.1714 H   0  0  0  0  0
  -12.5549   -2.9530   37.5230 H   0  0  0  0  0
  -15.8549    0.3936   40.9802 H   0  0  0  0  0
  -15.6078   -0.3113   39.4368 H   0  0  0  0  0
  -15.9121    1.3706   39.5723 H   0  0  0  0  0
  -11.6020    0.8459   34.5752 H   0  0  0  0  0
   -9.3262    0.8087   33.3811 H   0  0  0  0  0
   -9.2511    1.3046   36.2911 H   0  0  0  0  0
   -9.7266   -0.1469   35.5120 H   0  0  0  0  0
  1 10  1  0  0  0
  2 11  1  0  0  0
  3 12  1  0  0  0
  3 24  1  0  0  0
  4 13  1  0  0  0
  4 25  1  0  0  0
  5  6  1  0  0  0
  5 14  1  0  0  0
  5 26  1  0  0  0
  6 15  2  0  0  0
  7 14  2  0  0  0
  7 15  1  0  0  0
  8 14  1  0  0  0
  8 27  1  0  0  0
  8 29  1  0  0  0
  9 15  1  0  0  0
  9 30  1  0  0  0
  9 31  1  0  0  0
 10 16  2  0  0  0
 10 18  1  0  0  0
 11 18  2  0  0  0
 11 19  1  0  0  0
 12 13  2  0  0  0
 12 20  1  0  0  0
 13 21  1  0  0  0
 16 22  1  0  0  0
 16 27  1  0  0  0
 17 20  2  0  0  0
 17 23  1  0  0  0
 17 26  1  0  0  0
 18 32  1  0  0  0
 19 22  2  0  0  0
 19 33  1  0  0  0
 20 34  1  0  0  0
 21 23  2  0  0  0
 21 35  1  0  0  0
 22 36  1  0  0  0
 23 37  1  0  0  0
 24 38  1  0  0  0
 24 39  1  0  0  0
 24 40  1  0  0  0
 25 41  1  0  0  0
 25 42  1  0  0  0
 25 43  1  0  0  0
 26 28  1  0  0  0
 26 44  1  0  0  0
 27 28  1  0  0  0
 27 45  1  0  0  0
 28 46  1  0  0  0
 28 47  1  0  0  0
M  END
> <Pharm. Score>
36.13

> <rmsd>
0.9362813

> <Unaligned Pharm. Score>
36.42

> <Unaligned Pharm. Score (w/o EVS)>
36.42

$$$$
ZINC13131776
XX    ILIB05162103383D

 50 53  0  0  1  0              1 V2000
  -11.7662   -2.5124   39.9383 O   0  0  0  0  0
   -3.4361    2.5768   32.2474 O   0  0  0  0  0
  -10.2125    1.4608   35.2096 N   0  0  0  0  0
  -11.4788    1.8188   35.4819 N   0  0  0  0  0
  -10.2437    3.5906   34.7209 N   0  0  0  0  0
   -8.2148    2.3267   34.2954 N   0  0  0  0  0
  -12.4702    3.9940   35.3216 N   0  0  0  0  0
  -11.2768   -1.8870   38.8329 C   0  0  0  0  0
   -4.0847    1.8335   33.1852 C   0  0  0  0  0
   -9.4895    2.5121   34.7064 C   0  0  0  0  0
  -11.4376    3.1211   35.1931 C   0  0  0  0  0
  -10.2731   -0.6079   36.5661 C   0  0  0  0  0
   -6.1432    1.0278   34.1601 C   0  0  0  0  0
   -5.4788    1.7897   33.1990 C   0  0  0  0  0
  -10.0930   -2.3346   38.2463 C   0  0  0  0  0
  -11.9588   -0.7999   38.2862 C   0  0  0  0  0
   -3.3550    1.1151   34.1324 C   0  0  0  0  0
   -9.5913   -1.6950   37.1128 C   0  0  0  0  0
  -11.4567   -0.1604   37.1526 C   0  0  0  0  0
   -5.4135    0.3094   35.1072 C   0  0  0  0  0
   -4.0195    0.3531   35.0934 C   0  0  0  0  0
  -11.0597   -3.6628   40.3998 C   0  0  0  0  0
   -4.2426    3.2626   31.2908 C   0  0  0  0  0
   -9.7280    0.0866   35.3346 C   0  0  2  0  0
   -7.6580    0.9792   34.1746 C   0  0  1  0  0
   -8.1854    0.0782   35.3100 C   0  0  0  0  0
  -10.7029   -3.4702   41.8584 C   0  0  0  0  0
   -7.6366    3.1231   34.0681 H   0  0  0  0  0
  -13.3647    3.6714   35.6619 H   0  0  0  0  0
  -12.3436    4.9656   35.0769 H   0  0  0  0  0
   -6.0281    2.3304   32.4859 H   0  0  0  0  0
   -9.5797   -3.1528   38.6581 H   0  0  0  0  0
  -12.8498   -0.4631   38.7278 H   0  0  0  0  0
   -2.3056    1.1481   34.1221 H   0  0  0  0  0
   -8.7003   -2.0320   36.6710 H   0  0  0  0  0
  -11.9699    0.6579   36.7410 H   0  0  0  0  0
   -5.9137   -0.2643   35.8305 H   0  0  0  0  0
   -3.4702   -0.1877   35.8064 H   0  0  0  0  0
  -10.1835   -3.7856   39.8343 H   0  0  0  0  0
  -11.6670   -4.5127   40.2931 H   0  0  0  0  0
   -3.9525    4.2707   31.2468 H   0  0  0  0  0
   -5.2515    3.2008   31.5751 H   0  0  0  0  0
   -4.1175    2.8208   30.3465 H   0  0  0  0  0
  -10.0236   -0.4667   34.4926 H   0  0  0  0  0
   -7.9930    0.5409   33.2812 H   0  0  0  0  0
   -7.8188    0.4353   36.2268 H   0  0  0  0  0
   -7.8432   -0.9021   35.1541 H   0  0  0  0  0
   -9.9892   -4.1863   42.1416 H   0  0  0  0  0
  -11.5648   -3.5831   42.4473 H   0  0  0  0  0
  -10.3074   -2.5076   41.9978 H   0  0  0  0  0
  1  8  1  0  0  0
  1 22  1  0  0  0
  2  9  1  0  0  0
  2 23  1  0  0  0
  3  4  1  0  0  0
  3 10  1  0  0  0
  3 24  1  0  0  0
  4 11  2  0  0  0
  5 10  2  0  0  0
  5 11  1  0  0  0
  6 10  1  0  0  0
  6 25  1  0  0  0
  6 28  1  0  0  0
  7 11  1  0  0  0
  7 29  1  0  0  0
  7 30  1  0  0  0
  8 15  1  0  0  0
  8 16  2  0  0  0
  9 14  1  0  0  0
  9 17  2  0  0  0
 12 18  1  0  0  0
 12 19  2  0  0  0
 12 24  1  0  0  0
 13 14  2  0  0  0
 13 20  1  0  0  0
 13 25  1  0  0  0
 14 31  1  0  0  0
 15 18  2  0  0  0
 15 32  1  0  0  0
 16 19  1  0  0  0
 16 33  1  0  0  0
 17 21  1  0  0  0
 17 34  1  0  0  0
 18 35  1  0  0  0
 19 36  1  0  0  0
 20 21  2  0  0  0
 20 37  1  0  0  0
 21 38  1  0  0  0
 22 27  1  0  0  0
 22 39  1  0  0  0
 22 40  1  0  0  0
 23 41  1  0  0  0
 23 42  1  0  0  0
 23 43  1  0  0  0
 24 26  1  0  0  0
 24 44  1  0  0  0
 25 26  1  0  0  0
 25 45  1  0  0  0
 26 46  1  0  0  0
 26 47  1  0  0  0
 27 48  1  0  0  0
 27 49  1  0  0  0
 27 50  1  0  0  0
M  END
> <Pharm. Score>
56.4

> <rmsd>
0.9362792

> <Unaligned Pharm. Score>
46.21

> <Unaligned Pharm. Score (w/o EVS)>
46.21

$$$$
ZINC06901595
XX    ILIB05162103383D

 46 50  0  0  1  0              1 V2000
  -12.9509   -0.2035   38.3353 O   0  0  0  0  0
   -9.4737    4.0671   33.6495 N   0  0  0  0  0
  -10.7543    4.3788   34.0742 N   0  0  0  0  0
  -10.1220    2.5593   35.1031 N   0  0  0  0  0
   -7.7101    1.1738   34.8961 N   0  0  0  0  0
   -6.8640    2.6910   33.3347 N   0  0  0  0  0
   -9.1150    2.9726   34.2798 C   0  0  0  0  0
  -11.1265    3.4630   34.9456 C   0  0  0  0  0
   -7.8658    2.2579   34.1704 C   0  0  0  0  0
   -9.9829    1.4113   35.8848 C   0  0  0  0  0
   -8.7519    0.7336   35.7572 C   0  0  0  0  0
  -10.7734   -0.1925   37.4817 C   0  0  0  0  0
  -11.5574   -1.7695   39.3725 C   0  0  0  0  0
  -10.9924    0.9638   36.7348 C   0  0  0  0  0
   -8.5593   -0.4231   36.5172 C   0  0  0  0  0
   -9.5638   -0.8830   37.3739 C   0  0  0  0  0
  -12.3779   -1.8911   40.4940 C   0  0  0  0  0
  -10.5023   -2.6617   39.1802 C   0  0  0  0  0
  -12.1435   -2.9047   41.4231 C   0  0  0  0  0
  -10.2681   -3.6753   40.1094 C   0  0  0  0  0
  -11.0887   -3.7967   41.2308 C   0  0  0  0  0
  -11.8086   -0.6839   38.3771 C   0  0  0  0  0
   -5.7176    1.8308   33.0502 C   0  0  0  0  0
   -5.1896    2.0787   31.6393 C   0  0  0  0  0
   -4.5169    2.2255   33.9069 C   0  0  0  0  0
   -4.3592    3.3562   31.7488 C   0  0  0  0  0
   -3.9242    3.4506   33.2127 C   0  0  0  0  0
   -6.9184    3.6076   32.9139 H   0  0  0  0  0
  -12.0757    3.5174   35.3913 H   0  0  0  0  0
  -11.8954    1.4953   36.8029 H   0  0  0  0  0
   -7.6556   -0.9530   36.4469 H   0  0  0  0  0
   -9.4043   -1.7538   37.9386 H   0  0  0  0  0
  -13.1720   -1.2196   40.6388 H   0  0  0  0  0
   -9.8846   -2.5702   38.3360 H   0  0  0  0  0
  -12.7612   -2.9961   42.2673 H   0  0  0  0  0
   -9.4741   -4.3469   39.9648 H   0  0  0  0  0
  -10.9123   -4.5597   41.9302 H   0  0  0  0  0
   -6.0064    0.8246   33.1312 H   0  0  0  0  0
   -5.9974    2.1962   30.9789 H   0  0  0  0  0
   -4.6054    1.2608   31.3355 H   0  0  0  0  0
   -4.8401    2.4494   34.8805 H   0  0  0  0  0
   -3.8333    1.4291   33.9395 H   0  0  0  0  0
   -3.5290    3.2899   31.1094 H   0  0  0  0  0
   -4.9479    4.1810   31.4736 H   0  0  0  0  0
   -2.8780    3.4303   33.3000 H   0  0  0  0  0
   -4.2962    4.3227   33.6639 H   0  0  0  0  0
  1 22  2  0  0  0
  2  3  1  0  0  0
  2  7  2  0  0  0
  3  8  2  0  0  0
  4  7  1  0  0  0
  4  8  1  0  0  0
  4 10  1  0  0  0
  5  9  2  0  0  0
  5 11  1  0  0  0
  6  9  1  0  0  0
  6 23  1  0  0  0
  6 28  1  0  0  0
  7  9  1  0  0  0
  8 29  1  0  0  0
 10 11  2  0  0  0
 10 14  1  0  0  0
 11 15  1  0  0  0
 12 14  2  0  0  0
 12 16  1  0  0  0
 12 22  1  0  0  0
 13 17  1  0  0  0
 13 18  2  0  0  0
 13 22  1  0  0  0
 14 30  1  0  0  0
 15 16  2  0  0  0
 15 31  1  0  0  0
 16 32  1  0  0  0
 17 19  2  0  0  0
 17 33  1  0  0  0
 18 20  1  0  0  0
 18 34  1  0  0  0
 19 21  1  0  0  0
 19 35  1  0  0  0
 20 21  2  0  0  0
 20 36  1  0  0  0
 21 37  1  0  0  0
 23 24  1  0  0  0
 23 25  1  0  0  0
 23 38  1  0  0  0
 24 26  1  0  0  0
 24 39  1  0  0  0
 24 40  1  0  0  0
 25 27  1  0  0  0
 25 41  1  0  0  0
 25 42  1  0  0  0
 26 27  1  0  0  0
 26 43  1  0  0  0
 26 44  1  0  0  0
 27 45  1  0  0  0
 27 46  1  0  0  0
M  END
> <Pharm. Score>
55.76

> <rmsd>
1.0900346

> <Unaligned Pharm. Score>
46.3

> <Unaligned Pharm. Score (w/o EVS)>
46.3

$$$$
LB7
XX    ILIB05162103383D

 53 56  0  0  1  0              1 V2000
  -13.4479   -0.2333   38.7282 O   0  0  0  0  0
  -12.3663   -1.0756   38.5014 C   0  0  0  0  0
  -11.4448   -0.7160   37.5037 C   0  0  0  0  0
  -11.7831    0.3864   36.7018 N   0  0  0  0  0
  -11.0065    1.3599   36.0148 C   0  0  0  0  0
  -11.6196    2.5897   35.6078 C   0  0  0  0  0
  -10.9419    3.4979   34.8828 N   0  0  0  0  0
   -9.6793    3.2640   34.4795 N   0  0  0  0  0
   -9.0731    2.1375   34.8273 C   0  0  0  0  0
   -7.8061    2.0589   34.2277 N   0  0  0  0  0
   -6.7973    1.1931   34.4757 C   0  0  0  0  0
   -6.8497    0.3013   35.3186 O   0  0  0  0  0
   -5.5603    1.3975   33.6046 C   0  0  0  0  0
   -5.0718    0.2312   32.7875 C   0  0  0  0  0
   -4.3125    0.6459   33.9835 C   0  0  0  0  0
   -3.3374    0.9158   33.7028 H   0  0  0  0  0
   -4.2724   -0.1508   34.6662 H   0  0  0  0  0
   -4.8733    0.5496   31.8068 H   0  0  0  0  0
   -5.8083   -0.5170   32.7702 H   0  0  0  0  0
   -5.5889    2.2582   33.0038 H   0  0  0  0  0
   -7.6444    2.7621   33.5126 H   0  0  0  0  0
   -9.6816    1.1700   35.6333 C   0  0  0  0  0
   -9.1398    0.3235   35.9371 H   0  0  0  0  0
  -13.0427    2.9631   35.9306 C   0  0  0  0  0
  -13.6114    2.4987   36.9096 O   0  0  0  0  0
  -13.6128    3.8539   35.1260 N   0  0  0  0  0
  -14.9243    4.4044   35.4082 C   0  0  0  0  0
  -15.6623    3.7710   35.0124 H   0  0  0  0  0
  -15.0535    4.4860   36.4470 H   0  0  0  0  0
  -15.0067    5.3548   34.9695 H   0  0  0  0  0
  -13.1520    4.2042   34.2924 H   0  0  0  0  0
  -12.7821    0.4696   36.5507 H   0  0  0  0  0
  -10.3541   -1.5449   37.2528 C   0  0  0  0  0
  -10.1795   -2.6956   37.9970 C   0  0  0  0  0
  -11.1006   -3.0712   38.9520 C   0  0  0  0  0
  -12.2067   -2.2717   39.2166 C   0  0  0  0  0
  -13.1673   -2.7273   40.2338 C   0  0  0  0  0
  -12.8233   -3.4598   41.2818 N   0  0  0  0  0
  -13.9807   -3.5264   41.9806 N   0  0  0  0  0
  -14.9392   -2.8529   41.3314 C   0  0  0  0  0
  -14.4766   -2.3534   40.2092 N   0  0  0  0  0
  -15.9411   -2.6946   41.6029 H   0  0  0  0  0
  -14.0185   -4.2563   43.2432 C   0  0  0  0  0
  -13.2813   -5.0039   43.2375 H   0  0  0  0  0
  -14.9636   -4.6976   43.3642 H   0  0  0  0  0
  -13.8379   -3.5927   44.0366 H   0  0  0  0  0
  -10.9690   -3.9663   39.4849 H   0  0  0  0  0
   -9.3351   -3.2996   37.8396 H   0  0  0  0  0
   -9.6668   -1.2946   36.4995 H   0  0  0  0  0
  -13.2866    0.7685   39.7316 C   0  0  0  0  0
  -12.3639    1.2517   39.5986 H   0  0  0  0  0
  -14.0637    1.4703   39.6536 H   0  0  0  0  0
  -13.3135    0.3206   40.6809 H   0  0  0  0  0
  1  2  1  0  0  0
  1 50  1  0  0  0
  2  3  1  0  0  0
  2 36  2  0  0  0
  3  4  1  0  0  0
  3 33  2  0  0  0
  4  5  1  0  0  0
  4 32  1  0  0  0
  5  6  1  0  0  0
  5 22  2  0  0  0
  6  7  2  0  0  0
  6 24  1  0  0  0
  7  8  1  0  0  0
  8  9  2  0  0  0
  9 10  1  0  0  0
  9 22  1  0  0  0
 10 11  1  0  0  0
 10 21  1  0  0  0
 11 12  2  0  0  0
 11 13  1  0  0  0
 13 14  1  0  0  0
 13 15  1  0  0  0
 13 20  1  0  0  0
 14 15  1  0  0  0
 14 18  1  0  0  0
 14 19  1  0  0  0
 15 16  1  0  0  0
 15 17  1  0  0  0
 22 23  1  0  0  0
 24 25  2  0  0  0
 24 26  1  0  0  0
 26 27  1  0  0  0
 26 31  1  0  0  0
 27 28  1  0  0  0
 27 29  1  0  0  0
 27 30  1  0  0  0
 33 34  1  0  0  0
 33 49  1  0  0  0
 34 35  2  0  0  0
 34 48  1  0  0  0
 35 36  1  0  0  0
 35 47  1  0  0  0
 36 37  1  0  0  0
 37 38  2  0  0  0
 37 41  1  0  0  0
 38 39  1  0  0  0
 39 40  1  0  0  0
 39 43  1  0  0  0
 40 41  2  0  0  0
 40 42  1  0  0  0
 43 44  1  0  0  0
 43 45  1  0  0  0
 43 46  1  0  0  0
 50 51  1  0  0  0
 50 52  1  0  0  0
 50 53  1  0  0  0
M  END
$$$$
