REMARK  7 active torsions:
REMARK  status: ('A' for Active; 'I' for Inactive)
REMARK    1  A    between atoms: C1_1  and  C5_12 
REMARK    2  A    between atoms: C2_4  and  N3_8 
REMARK    3  A    between atoms: O2_6  and  C12_23 
REMARK       I    between atoms: N3_8  and  C13_24 
REMARK    4  A    between atoms: C4_10  and  N4_11 
REMARK    5  A    between atoms: N4_11  and  C7_16 
REMARK       I    between atoms: C5_12  and  N5_13 
REMARK    6  A    between atoms: C11_22  and  C15_26 
REMARK    7  A    between atoms: C13_24  and  C14_25 
ROOT
HETATM    1  C1  LB7 B 901     -11.635   2.694  35.538  1.00 43.11     0.173 A 
HETATM    2  N1  LB7 B 901     -11.013   3.577  34.736  1.00 39.97    -0.140 NA
HETATM    3  C2  LB7 B 901      -9.013   2.435  34.941  1.00 40.90     0.154 A 
HETATM    4  N2  LB7 B 901      -9.711   3.437  34.425  1.00 39.74    -0.131 NA
HETATM    5  C3  LB7 B 901      -9.565   1.511  35.834  1.00 43.10     0.084 A 
HETATM    6  C4  LB7 B 901     -10.923   1.598  36.126  1.00 43.55     0.072 A 
ENDROOT
BRANCH   1   7
HETATM    7  C5  LB7 B 901     -13.106   2.944  35.744  1.00 43.07     0.274 C 
HETATM    8  O1  LB7 B 901     -13.780   2.205  36.449  1.00 43.24    -0.266 OA
HETATM    9  N5  LB7 B 901     -13.604   4.030  35.162  1.00 43.09    -0.360 N 
HETATM   10  C6  LB7 B 901     -14.968   4.462  35.398  1.00 43.12     0.149 C 
HETATM   11  H7  LB7 B 901     -13.051   4.616  34.545  0.00 43.13     0.162 HD
ENDBRANCH   1   7
BRANCH   6  12
HETATM   12  N4  LB7 B 901     -11.634   0.635  36.894  1.00 43.07    -0.352 N 
HETATM   13  H6  LB7 B 901     -12.637   0.781  36.918  0.00 43.13     0.166 HD
BRANCH  12  14
HETATM   14  C7  LB7 B 901     -11.237  -0.524  37.581  1.00 42.13     0.067 A 
HETATM   15  C12 LB7 B 901     -12.122  -1.012  38.557  1.00 44.06     0.109 A 
HETATM   16  C11 LB7 B 901     -11.902  -2.263  39.152  1.00 41.24     0.049 A 
HETATM   17  C10 LB7 B 901     -10.773  -2.990  38.792  1.00 43.07     0.018 A 
HETATM   18  C9  LB7 B 901      -9.888  -2.490  37.860  1.00 43.11     0.003 A 
HETATM   19  C8  LB7 B 901     -10.122  -1.282  37.232  1.00 43.08     0.032 A 
BRANCH  15  20
HETATM   20  O2  LB7 B 901     -13.229  -0.238  38.883  1.00 44.22    -0.353 OA
HETATM   21  C16 LB7 B 901     -12.986   0.954  39.629  1.00 43.12     0.210 C 
ENDBRANCH  15  20
BRANCH  16  22
HETATM   22  C15 LB7 B 901     -12.822  -2.850  40.139  1.00 40.29     0.183 A 
HETATM   23  N6  LB7 B 901     -12.417  -3.588  41.161  1.00 40.03    -0.151 NA
HETATM   24  N7  LB7 B 901     -13.568  -3.794  41.843  1.00 42.38    -0.266 N 
HETATM   25  C18 LB7 B 901     -13.545  -4.575  43.075  1.00 43.14     0.181 C 
HETATM   26  C17 LB7 B 901     -14.582  -3.190  41.210  1.00 43.08     0.230 A 
HETATM   27  N8  LB7 B 901     -14.161  -2.603  40.114  1.00 40.50    -0.220 NA
ENDBRANCH  16  22
ENDBRANCH  12  14
ENDBRANCH   6  12
BRANCH   3  28
HETATM   28  N3  LB7 B 901      -7.711   2.425  34.416  1.00 43.00    -0.310 N 
HETATM   29  C13 LB7 B 901      -6.742   1.492  34.556  1.00 42.79     0.227 C 
HETATM   30  O3  LB7 B 901      -6.872   0.460  35.209  1.00 43.33    -0.273 OA
HETATM   31  H5  LB7 B 901      -7.485   3.244  33.859  0.00 43.13     0.170 HD
BRANCH  29  32
HETATM   32  C14 LB7 B 901      -5.445   1.812  33.817  1.00 43.19     0.078 A 
HETATM   33  C19 LB7 B 901      -4.688   0.670  33.193  1.00 43.11     0.015 A 
HETATM   34  C20 LB7 B 901      -4.161   1.305  34.417  1.00 43.11     0.015 A 
ENDBRANCH  29  32
ENDBRANCH   3  28
TORSDOF 7
