ZINC13131776
XX    ILIB05142104133D

 50 53  0  0  1  0              1 V2000
  -11.7662   -2.5124   39.9383 O   0  0  0  0  0
  -11.2768   -1.8870   38.8329 C   0  0  0  0  0
  -10.0930   -2.3346   38.2463 C   0  0  0  0  0
   -9.5913   -1.6950   37.1128 C   0  0  0  0  0
  -10.2731   -0.6079   36.5661 C   0  0  0  0  0
  -11.4567   -0.1604   37.1526 C   0  0  0  0  0
  -11.9588   -0.7999   38.2862 C   0  0  0  0  0
  -12.8498   -0.4631   38.7278 H   0  0  0  0  0
  -11.9699    0.6579   36.7410 H   0  0  0  0  0
   -9.7280    0.0866   35.3346 C   0  0  1  0  0
  -10.2125    1.4608   35.2096 N   0  0  0  0  0
  -11.4788    1.8188   35.4819 N   0  0  0  0  0
  -11.4376    3.1211   35.1931 C   0  0  0  0  0
  -10.2437    3.5906   34.7209 N   0  0  0  0  0
   -9.4895    2.5121   34.7064 C   0  0  0  0  0
   -8.2148    2.3267   34.2954 N   0  0  0  0  0
   -7.6580    0.9792   34.1746 C   0  0  1  0  0
   -6.1432    1.0278   34.1601 C   0  0  0  0  0
   -5.4788    1.7897   33.1990 C   0  0  0  0  0
   -4.0847    1.8335   33.1852 C   0  0  0  0  0
   -3.4361    2.5768   32.2474 O   0  0  0  0  0
   -4.2426    3.2626   31.2908 C   0  0  0  0  0
   -3.9525    4.2707   31.2468 H   0  0  0  0  0
   -5.2515    3.2008   31.5751 H   0  0  0  0  0
   -4.1175    2.8208   30.3465 H   0  0  0  0  0
   -3.3550    1.1151   34.1324 C   0  0  0  0  0
   -4.0195    0.3531   35.0934 C   0  0  0  0  0
   -5.4135    0.3094   35.1072 C   0  0  0  0  0
   -5.9137   -0.2643   35.8305 H   0  0  0  0  0
   -3.4702   -0.1877   35.8064 H   0  0  0  0  0
   -2.3056    1.1481   34.1221 H   0  0  0  0  0
   -6.0281    2.3304   32.4859 H   0  0  0  0  0
   -8.1854    0.0782   35.3100 C   0  0  0  0  0
   -7.8188    0.4353   36.2268 H   0  0  0  0  0
   -7.8432   -0.9021   35.1541 H   0  0  0  0  0
   -7.9930    0.5409   33.2812 H   0  0  0  0  0
   -7.6366    3.1231   34.0681 H   0  0  0  0  0
  -12.4702    3.9940   35.3216 N   0  0  0  0  0
  -13.3647    3.6714   35.6619 H   0  0  0  0  0
  -12.3436    4.9656   35.0769 H   0  0  0  0  0
  -10.0236   -0.4667   34.4926 H   0  0  0  0  0
   -8.7003   -2.0320   36.6710 H   0  0  0  0  0
   -9.5797   -3.1528   38.6581 H   0  0  0  0  0
  -11.0597   -3.6628   40.3998 C   0  0  0  0  0
  -10.7029   -3.4702   41.8584 C   0  0  0  0  0
   -9.9892   -4.1863   42.1416 H   0  0  0  0  0
  -11.5648   -3.5831   42.4473 H   0  0  0  0  0
  -10.3074   -2.5076   41.9978 H   0  0  0  0  0
  -10.1835   -3.7856   39.8343 H   0  0  0  0  0
  -11.6670   -4.5127   40.2931 H   0  0  0  0  0
  1  2  1  0  0  0
  1 44  1  0  0  0
  2  3  1  0  0  0
  2  7  2  0  0  0
  3  4  2  0  0  0
  3 43  1  0  0  0
  4  5  1  0  0  0
  4 42  1  0  0  0
  5  6  2  0  0  0
  5 10  1  0  0  0
  6  7  1  0  0  0
  6  9  1  0  0  0
  7  8  1  0  0  0
 10 11  1  0  0  0
 10 33  1  0  0  0
 10 41  1  0  0  0
 11 12  1  0  0  0
 11 15  1  0  0  0
 12 13  2  0  0  0
 13 14  1  0  0  0
 13 38  1  0  0  0
 14 15  2  0  0  0
 15 16  1  0  0  0
 16 17  1  0  0  0
 16 37  1  0  0  0
 17 18  1  0  0  0
 17 33  1  0  0  0
 17 36  1  0  0  0
 18 19  2  0  0  0
 18 28  1  0  0  0
 19 20  1  0  0  0
 19 32  1  0  0  0
 20 21  1  0  0  0
 20 26  2  0  0  0
 21 22  1  0  0  0
 22 23  1  0  0  0
 22 24  1  0  0  0
 22 25  1  0  0  0
 26 27  1  0  0  0
 26 31  1  0  0  0
 27 28  2  0  0  0
 27 30  1  0  0  0
 28 29  1  0  0  0
 33 34  1  0  0  0
 33 35  1  0  0  0
 38 39  1  0  0  0
 38 40  1  0  0  0
 44 45  1  0  0  0
 44 49  1  0  0  0
 44 50  1  0  0  0
 45 46  1  0  0  0
 45 47  1  0  0  0
 45 48  1  0  0  0
M  END
> <CNNaffinity_variance>
0.049679678

> <CNN_VS>
6.746731

> <CNNscore>
0.96156627

> <rmsd>
0.9362792

> <minimizedAffinity>
-9.04055

> <Unaligned Pharm. Score (w/o EVS)>
46.21

> <Pharm. Score>
56.4

> <CNNaffinity>
7.016397

> <Unaligned Pharm. Score>
46.21

$$$$
ZINC13131298
XX    ILIB05142104133D

 47 50  0  0  1  0              1 V2000
   -8.2818   -1.1372   36.0127 Cl  0  0  0  0  0
   -7.0913   -0.2695   35.1133 C   0  0  0  0  0
   -7.4391    0.8193   34.3136 C   0  0  0  0  0
   -6.4552    1.5016   33.5981 C   0  0  0  0  0
   -5.1236    1.0953   33.6822 C   0  0  0  0  0
   -4.7756    0.0066   34.4818 C   0  0  0  0  0
   -3.1320   -0.4931   34.5860 Cl  0  0  0  0  0
   -5.7596   -0.6760   35.1972 C   0  0  0  0  0
   -5.4978   -1.4957   35.7990 H   0  0  0  0  0
   -4.3831    1.6091   33.1435 H   0  0  0  0  0
   -6.7170    2.3211   32.9961 H   0  0  0  0  0
   -8.8739    1.2930   34.1956 C   0  0  2  0  0
   -8.9225    2.7407   33.9903 N   0  0  0  0  0
  -10.0572    3.4345   34.2343 C   0  0  0  0  0
  -11.1126    2.8306   34.8690 N   0  0  0  0  0
  -12.1760    3.6484   34.9438 N   0  0  0  0  0
  -11.6740    4.7611   34.4041 C   0  0  0  0  0
  -10.3833    4.6799   33.9610 N   0  0  0  0  0
  -12.3352    5.9383   34.2571 N   0  0  0  0  0
  -13.2917    6.0228   34.5700 H   0  0  0  0  0
  -11.8702    6.7293   33.8350 H   0  0  0  0  0
  -11.1451    1.4374   35.3126 C   0  0  2  0  0
  -11.9210    1.2604   36.6020 C   0  0  0  0  0
  -12.1711   -0.0200   37.0957 C   0  0  0  0  0
  -12.8850   -0.1827   38.2827 C   0  0  0  0  0
  -13.1236   -1.4382   38.7548 O   0  0  0  0  0
  -12.2005   -2.4584   38.3787 C   0  0  0  0  0
  -12.1006   -3.1472   39.1649 H   0  0  0  0  0
  -11.2663   -2.0261   38.1714 H   0  0  0  0  0
  -12.5549   -2.9530   37.5230 H   0  0  0  0  0
  -13.3490    0.9350   38.9764 C   0  0  0  0  0
  -14.0471    0.7886   40.1367 O   0  0  0  0  0
  -15.4479    0.5442   40.0240 C   0  0  0  0  0
  -15.8549    0.3936   40.9802 H   0  0  0  0  0
  -15.6078   -0.3113   39.4368 H   0  0  0  0  0
  -15.9121    1.3706   39.5723 H   0  0  0  0  0
  -13.0989    2.2153   38.4829 C   0  0  0  0  0
  -12.3850    2.3780   37.2957 C   0  0  0  0  0
  -12.1969    3.3420   36.9243 H   0  0  0  0  0
  -13.4481    3.0567   39.0051 H   0  0  0  0  0
  -11.8218   -0.8614   36.5735 H   0  0  0  0  0
   -9.7042    0.9000   35.4347 C   0  0  0  0  0
   -9.2511    1.3046   36.2911 H   0  0  0  0  0
   -9.7266   -0.1469   35.5120 H   0  0  0  0  0
  -11.6020    0.8459   34.5752 H   0  0  0  0  0
   -8.0970    3.2219   33.6627 H   0  0  0  0  0
   -9.3262    0.8087   33.3811 H   0  0  0  0  0
  1  2  1  0  0  0
  2  3  2  0  0  0
  2  8  1  0  0  0
  3  4  1  0  0  0
  3 12  1  0  0  0
  4  5  2  0  0  0
  4 11  1  0  0  0
  5  6  1  0  0  0
  5 10  1  0  0  0
  6  7  1  0  0  0
  6  8  2  0  0  0
  8  9  1  0  0  0
 12 13  1  0  0  0
 12 42  1  0  0  0
 12 47  1  0  0  0
 13 14  1  0  0  0
 13 46  1  0  0  0
 14 15  1  0  0  0
 14 18  2  0  0  0
 15 16  1  0  0  0
 15 22  1  0  0  0
 16 17  2  0  0  0
 17 18  1  0  0  0
 17 19  1  0  0  0
 19 20  1  0  0  0
 19 21  1  0  0  0
 22 23  1  0  0  0
 22 42  1  0  0  0
 22 45  1  0  0  0
 23 24  2  0  0  0
 23 38  1  0  0  0
 24 25  1  0  0  0
 24 41  1  0  0  0
 25 26  1  0  0  0
 25 31  2  0  0  0
 26 27  1  0  0  0
 27 28  1  0  0  0
 27 29  1  0  0  0
 27 30  1  0  0  0
 31 32  1  0  0  0
 31 37  1  0  0  0
 32 33  1  0  0  0
 33 34  1  0  0  0
 33 35  1  0  0  0
 33 36  1  0  0  0
 37 38  2  0  0  0
 37 40  1  0  0  0
 38 39  1  0  0  0
 42 43  1  0  0  0
 42 44  1  0  0  0
M  END
> <CNNaffinity_variance>
0.0970635

> <CNN_VS>
6.877902

> <CNNscore>
0.9380192

> <rmsd>
0.9362813

> <minimizedAffinity>
-9.06796

> <Unaligned Pharm. Score (w/o EVS)>
36.42

> <Pharm. Score>
36.13

> <CNNaffinity>
7.332368

> <Unaligned Pharm. Score>
36.42

$$$$
ZINC06901730
XX    ILIB05142104133D

 58 62  0  0  1  0              1 V2000
  -10.1058   -1.2647   38.7483 O   0  0  0  0  0
  -11.3316   -1.3361   38.5779 C   0  0  0  0  0
  -12.0328   -0.2884   37.8519 C   0  0  0  0  0
  -11.3127    0.6451   37.1087 C   0  0  0  0  0
  -12.0122    1.6371   36.4241 C   0  0  0  0  0
  -11.3672    2.6092   35.6578 N   0  0  0  0  0
  -12.0800    3.5684   34.9986 C   0  0  0  0  0
  -11.2631    4.3659   34.3501 N   0  0  0  0  0
   -9.9769    3.9136   34.5928 N   0  0  0  0  0
  -10.0595    2.8596   35.3792 C   0  0  0  0  0
   -8.8934    2.0966   35.8585 C   0  0  0  0  0
   -9.2124    1.1704   36.2364 H   0  0  0  0  0
   -8.2270    1.9390   35.0624 H   0  0  0  0  0
   -8.4098    2.6368   36.6180 H   0  0  0  0  0
  -13.5208    3.6333   35.0541 C   0  0  0  0  0
  -14.1516    2.7294   35.7689 N   0  0  0  0  0
  -13.4200    1.7255   36.4599 C   0  0  0  0  0
  -14.1167    0.7771   37.2130 C   0  0  0  0  0
  -13.4275   -0.2235   37.9046 C   0  0  0  0  0
  -13.9650   -0.9292   38.4662 H   0  0  0  0  0
  -15.1649    0.8129   37.2623 H   0  0  0  0  0
  -14.1948    4.5734   34.4053 N   0  0  0  0  0
  -15.6479    4.7540   34.5606 C   0  0  0  0  0
  -16.2835    4.9022   33.1683 C   0  0  0  0  0
  -17.5931    4.1270   32.9814 C   0  0  0  0  0
  -18.8138    4.6048   33.7702 C   0  0  0  0  0
  -18.7280    4.3730   35.2784 C   0  0  0  0  0
  -18.3669    5.6033   36.1105 C   0  0  0  0  0
  -17.2870    6.5332   35.5682 C   0  0  0  0  0
  -15.8748    5.9584   35.4895 C   0  0  0  0  0
  -15.6289    5.6916   36.4748 H   0  0  0  0  0
  -15.2672    6.7574   35.1813 H   0  0  0  0  0
  -17.2882    7.3739   36.1973 H   0  0  0  0  0
  -17.6045    6.8144   34.6077 H   0  0  0  0  0
  -18.0682    5.2267   37.0440 H   0  0  0  0  0
  -19.2652    6.1360   36.2192 H   0  0  0  0  0
  -17.9927    3.6513   35.4803 H   0  0  0  0  0
  -19.6566    4.0356   35.6340 H   0  0  0  0  0
  -18.9403    5.6374   33.6278 H   0  0  0  0  0
  -19.6691    4.0977   33.4327 H   0  0  0  0  0
  -17.4515    3.1266   33.2673 H   0  0  0  0  0
  -17.8816    4.1652   31.9725 H   0  0  0  0  0
  -15.6144    4.5516   32.4390 H   0  0  0  0  0
  -16.4992    5.9139   32.9879 H   0  0  0  0  0
  -16.0543    3.9180   35.0489 H   0  0  0  0  0
  -13.7112    5.1987   33.7765 H   0  0  0  0  0
  -10.2645    0.6118   37.0582 H   0  0  0  0  0
  -12.0351   -2.5261   39.1440 C   0  0  0  0  0
  -13.3709   -2.4268   39.5334 C   0  0  0  0  0
  -14.0279   -3.5380   40.0618 C   0  0  0  0  0
  -13.3491   -4.7487   40.2005 C   0  0  0  0  0
  -12.0134   -4.8481   39.8111 C   0  0  0  0  0
  -11.3564   -3.7369   39.2827 C   0  0  0  0  0
  -10.3510   -3.8118   38.9895 H   0  0  0  0  0
  -11.5025   -5.7594   39.9158 H   0  0  0  0  0
  -13.8437   -5.5853   40.5981 H   0  0  0  0  0
  -15.0333   -3.4631   40.3551 H   0  0  0  0  0
  -13.8819   -1.5156   39.4288 H   0  0  0  0  0
  1  2  2  0  0  0
  2  3  1  0  0  0
  2 48  1  0  0  0
  3  4  2  0  0  0
  3 19  1  0  0  0
  4  5  1  0  0  0
  4 47  1  0  0  0
  5  6  1  0  0  0
  5 17  2  0  0  0
  6  7  1  0  0  0
  6 10  1  0  0  0
  7  8  2  0  0  0
  7 15  1  0  0  0
  8  9  1  0  0  0
  9 10  2  0  0  0
 10 11  1  0  0  0
 11 12  1  0  0  0
 11 13  1  0  0  0
 11 14  1  0  0  0
 15 16  2  0  0  0
 15 22  1  0  0  0
 16 17  1  0  0  0
 17 18  1  0  0  0
 18 19  2  0  0  0
 18 21  1  0  0  0
 19 20  1  0  0  0
 22 23  1  0  0  0
 22 46  1  0  0  0
 23 24  1  0  0  0
 23 30  1  0  0  0
 23 45  1  0  0  0
 24 25  1  0  0  0
 24 43  1  0  0  0
 24 44  1  0  0  0
 25 26  1  0  0  0
 25 41  1  0  0  0
 25 42  1  0  0  0
 26 27  1  0  0  0
 26 39  1  0  0  0
 26 40  1  0  0  0
 27 28  1  0  0  0
 27 37  1  0  0  0
 27 38  1  0  0  0
 28 29  1  0  0  0
 28 35  1  0  0  0
 28 36  1  0  0  0
 29 30  1  0  0  0
 29 33  1  0  0  0
 29 34  1  0  0  0
 30 31  1  0  0  0
 30 32  1  0  0  0
 48 49  1  0  0  0
 48 53  2  0  0  0
 49 50  2  0  0  0
 49 58  1  0  0  0
 50 51  1  0  0  0
 50 57  1  0  0  0
 51 52  2  0  0  0
 51 56  1  0  0  0
 52 53  1  0  0  0
 52 55  1  0  0  0
 53 54  1  0  0  0
M  END
> <CNNaffinity_variance>
0.04280842

> <CNN_VS>
7.42726

> <CNNscore>
0.97531664

> <rmsd>
0.8850234

> <minimizedAffinity>
-10.26856

> <Unaligned Pharm. Score (w/o EVS)>
66.03

> <Pharm. Score>
55.75

> <CNNaffinity>
7.615229

> <Unaligned Pharm. Score>
66.03

$$$$
ZINC02919373
XX    ILIB05142104133D

 49 52  0  0  1  0              1 V2000
  -14.4902   -2.7735   41.5603 O   0  0  0  0  0
  -13.5657   -2.4947   40.7588 N   0  3  0  0  0
  -12.6873   -3.3319   40.4393 O   0  0  0  0  0
  -13.0919   -4.0247   39.7934 H   0  0  0  0  0
  -13.5118   -1.1921   40.1965 C   0  0  0  0  0
  -13.1769   -1.0257   38.8527 C   0  0  0  0  0
  -13.1227    0.2544   38.3009 C   0  0  0  0  0
  -13.4031    1.3678   39.0929 C   0  0  0  0  0
  -13.7382    1.2013   40.4367 C   0  0  0  0  0
  -13.7924   -0.0788   40.9886 C   0  0  0  0  0
  -14.0445   -0.2043   42.0001 H   0  0  0  0  0
  -13.9495    2.0394   41.0329 H   0  0  0  0  0
  -13.3620    2.3312   38.6775 H   0  0  0  0  0
  -12.7597    0.4359   36.8410 C   0  0  1  0  0
  -13.1778    1.7373   36.3209 N   0  0  0  0  0
  -14.3547    2.3067   36.6313 N   0  0  0  0  0
  -14.2886    3.4267   35.9084 C   0  0  0  0  0
  -13.1692    3.5746   35.1377 N   0  0  0  0  0
  -12.4931    2.4736   35.3880 C   0  0  0  0  0
  -11.3218    2.0191   34.8882 N   0  0  0  0  0
  -10.8738    0.6534   35.1608 C   0  0  1  0  0
   -9.3843    0.5216   34.9139 C   0  0  0  0  0
   -8.7829    1.2389   33.8796 C   0  0  0  0  0
   -7.4121    1.1174   33.6518 C   0  0  0  0  0
   -6.6428    0.2785   34.4580 C   0  0  0  0  0
   -7.2442   -0.4389   35.4923 C   0  0  0  0  0
   -8.6150   -0.3173   35.7201 C   0  0  0  0  0
   -9.0677   -0.8573   36.4985 H   0  0  0  0  0
   -6.6650   -1.0703   36.0992 H   0  0  0  0  0
   -5.1772    0.1484   34.2145 C   0  0  0  0  0
   -4.8347    0.0628   32.7150 C   0  0  0  0  0
   -5.0129    0.9930   32.2617 H   0  0  0  0  0
   -3.8229   -0.1939   32.6012 H   0  0  0  0  0
   -5.4347   -0.6690   32.2601 H   0  0  0  0  0
   -4.5604   -1.0502   34.9603 C   0  0  0  0  0
   -3.6141   -0.7837   35.3290 H   0  0  0  0  0
   -5.1835   -1.3231   35.7601 H   0  0  0  0  0
   -4.4631   -1.8608   34.3000 H   0  0  0  0  0
   -4.6894    1.0188   34.5416 H   0  0  0  0  0
   -6.9594    1.6574   32.8734 H   0  0  0  0  0
   -9.3620    1.8702   33.2726 H   0  0  0  0  0
  -11.2480    0.2445   36.6003 C   0  0  0  0  0
  -10.7079    0.8405   37.2752 H   0  0  0  0  0
  -10.9956   -0.7644   36.7446 H   0  0  0  0  0
  -11.3835   -0.0145   34.5310 H   0  0  0  0  0
  -10.7464    2.6243   34.3202 H   0  0  0  0  0
  -15.0684    4.1284   35.9550 H   0  0  0  0  0
  -13.2285   -0.3271   36.2928 H   0  0  0  0  0
  -12.9655   -1.8638   38.2566 H   0  0  0  0  0
  1  2  2  0  0  0
  2  3  1  0  0  0
  2  5  1  0  0  0
  3  4  1  0  0  0
  5  6  1  0  0  0
  5 10  2  0  0  0
  6  7  2  0  0  0
  6 49  1  0  0  0
  7  8  1  0  0  0
  7 14  1  0  0  0
  8  9  2  0  0  0
  8 13  1  0  0  0
  9 10  1  0  0  0
  9 12  1  0  0  0
 10 11  1  0  0  0
 14 15  1  0  0  0
 14 42  1  0  0  0
 14 48  1  0  0  0
 15 16  1  0  0  0
 15 19  1  0  0  0
 16 17  2  0  0  0
 17 18  1  0  0  0
 17 47  1  0  0  0
 18 19  2  0  0  0
 19 20  1  0  0  0
 20 21  1  0  0  0
 20 46  1  0  0  0
 21 22  1  0  0  0
 21 42  1  0  0  0
 21 45  1  0  0  0
 22 23  1  0  0  0
 22 27  2  0  0  0
 23 24  2  0  0  0
 23 41  1  0  0  0
 24 25  1  0  0  0
 24 40  1  0  0  0
 25 26  2  0  0  0
 25 30  1  0  0  0
 26 27  1  0  0  0
 26 29  1  0  0  0
 27 28  1  0  0  0
 30 31  1  0  0  0
 30 35  1  0  0  0
 30 39  1  0  0  0
 31 32  1  0  0  0
 31 33  1  0  0  0
 31 34  1  0  0  0
 35 36  1  0  0  0
 35 37  1  0  0  0
 35 38  1  0  0  0
 42 43  1  0  0  0
 42 44  1  0  0  0
M  END
> <CNNaffinity_variance>
0.0794755

> <CNN_VS>
6.383247

> <CNNscore>
0.9045546

> <rmsd>
1.0747387

> <minimizedAffinity>
-9.00245

> <Unaligned Pharm. Score (w/o EVS)>
46.75

> <Pharm. Score>
55.81

> <CNNaffinity>
7.0567846

> <Unaligned Pharm. Score>
46.75

$$$$
ZINC02951511
XX    ILIB05142104133D

 41 44  0  0  1  0              1 V2000
  -14.8150    5.7852   35.0386 S   0  0  0  0  0
  -15.4187    4.4173   35.8810 C   0  0  0  0  0
  -16.7068    4.4125   36.1430 N   0  0  0  0  0
  -17.2680    5.5720   35.6446 C   0  0  0  0  0
  -16.4007    6.4380   35.0125 C   0  0  0  0  0
  -16.5784    7.3673   34.5571 H   0  0  0  0  0
  -18.2967    5.7488   35.7592 H   0  0  0  0  0
  -14.4638    3.4250   36.2122 N   0  0  0  0  0
  -13.1386    3.3551   35.8050 C   0  0  0  0  0
  -12.5267    4.1361   35.0777 O   0  0  0  0  0
  -12.4521    2.1793   36.3519 C   0  0  0  0  0
  -11.0658    1.8132   36.0569 C   0  0  0  0  0
  -10.4905    0.6946   36.6079 O   0  0  0  0  0
  -11.2559   -0.1107   37.4725 C   0  0  0  0  0
  -12.5784    0.2140   37.7709 C   0  0  0  0  0
  -13.2980   -0.6165   38.6342 C   0  0  0  0  0
  -12.6913   -1.7500   39.1826 C   0  0  0  0  0
  -13.4265   -2.5910   40.0598 N   0  3  0  0  0
  -12.8287   -3.5207   40.6538 O   0  0  0  0  0
  -14.6536   -2.3815   40.2161 O   0  0  0  0  0
  -15.1320   -2.4486   39.3063 H   0  0  0  0  0
  -11.3653   -2.0597   38.8725 C   0  0  0  0  0
  -10.6398   -1.2380   38.0129 C   0  0  0  0  0
   -9.6422   -1.4581   37.7705 H   0  0  0  0  0
  -10.9145   -2.9124   39.2874 H   0  0  0  0  0
  -14.2952   -0.3884   38.8707 H   0  0  0  0  0
  -13.1708    1.4056   37.1757 C   0  0  0  0  0
  -14.1659    1.6613   37.3921 H   0  0  0  0  0
  -10.2575    2.4474   35.2943 N   0  0  0  0  0
   -8.9248    2.0740   35.0256 C   0  0  0  0  0
   -8.2013    2.7363   34.0338 C   0  0  0  0  0
   -6.8827    2.3671   33.7682 C   0  0  0  0  0
   -6.2876    1.3355   34.4947 C   0  0  0  0  0
   -5.0217    0.9804   34.2397 F   0  0  0  0  0
   -7.0111    0.6733   35.4865 C   0  0  0  0  0
   -8.3297    1.0427   35.7519 C   0  0  0  0  0
   -8.8744    0.5443   36.4985 H   0  0  0  0  0
   -6.5631   -0.1031   36.0333 H   0  0  0  0  0
   -6.3380    2.8656   33.0217 H   0  0  0  0  0
   -8.6493    3.5128   33.4872 H   0  0  0  0  0
  -14.7232    2.6548   36.8119 H   0  0  0  0  0
  1  2  1  0  0  0
  1  5  1  0  0  0
  2  3  2  0  0  0
  2  8  1  0  0  0
  3  4  1  0  0  0
  4  5  2  0  0  0
  4  7  1  0  0  0
  5  6  1  0  0  0
  8  9  1  0  0  0
  8 41  1  0  0  0
  9 10  2  0  0  0
  9 11  1  0  0  0
 11 12  1  0  0  0
 11 27  2  0  0  0
 12 13  1  0  0  0
 12 29  2  0  0  0
 13 14  1  0  0  0
 14 15  2  0  0  0
 14 23  1  0  0  0
 15 16  1  0  0  0
 15 27  1  0  0  0
 16 17  2  0  0  0
 16 26  1  0  0  0
 17 18  1  0  0  0
 17 22  1  0  0  0
 18 19  2  0  0  0
 18 20  1  0  0  0
 20 21  1  0  0  0
 22 23  2  0  0  0
 22 25  1  0  0  0
 23 24  1  0  0  0
 27 28  1  0  0  0
 29 30  1  0  0  0
 30 31  1  0  0  0
 30 36  2  0  0  0
 31 32  2  0  0  0
 31 40  1  0  0  0
 32 33  1  0  0  0
 32 39  1  0  0  0
 33 34  1  0  0  0
 33 35  2  0  0  0
 35 36  1  0  0  0
 35 38  1  0  0  0
 36 37  1  0  0  0
M  END
> <CNNaffinity_variance>
0.034060698

> <CNN_VS>
6.1829834

> <CNNscore>
0.868899

> <rmsd>
1.0892092

> <minimizedAffinity>
-9.07727

> <Unaligned Pharm. Score (w/o EVS)>
45.99

> <Pharm. Score>
66.0

> <CNNaffinity>
7.115883

> <Unaligned Pharm. Score>
45.99

$$$$
ZINC06901595
XX    ILIB05142104133D

 46 50  0  0  1  0              1 V2000
  -12.9509   -0.2035   38.3353 O   0  0  0  0  0
  -11.8086   -0.6839   38.3771 C   0  0  0  0  0
  -10.7734   -0.1925   37.4817 C   0  0  0  0  0
  -10.9924    0.9638   36.7348 C   0  0  0  0  0
   -9.9829    1.4113   35.8848 C   0  0  0  0  0
  -10.1220    2.5593   35.1031 N   0  0  0  0  0
   -9.1150    2.9726   34.2798 C   0  0  0  0  0
   -9.4737    4.0671   33.6495 N   0  0  0  0  0
  -10.7543    4.3788   34.0742 N   0  0  0  0  0
  -11.1265    3.4630   34.9456 C   0  0  0  0  0
  -12.0757    3.5174   35.3913 H   0  0  0  0  0
   -7.8658    2.2579   34.1704 C   0  0  0  0  0
   -7.7101    1.1738   34.8961 N   0  0  0  0  0
   -8.7519    0.7336   35.7572 C   0  0  0  0  0
   -8.5593   -0.4231   36.5172 C   0  0  0  0  0
   -9.5638   -0.8830   37.3739 C   0  0  0  0  0
   -9.4043   -1.7538   37.9386 H   0  0  0  0  0
   -7.6556   -0.9530   36.4469 H   0  0  0  0  0
   -6.8640    2.6910   33.3347 N   0  0  0  0  0
   -5.7176    1.8308   33.0502 C   0  0  0  0  0
   -5.1896    2.0787   31.6393 C   0  0  0  0  0
   -4.3592    3.3562   31.7488 C   0  0  0  0  0
   -3.9242    3.4506   33.2127 C   0  0  0  0  0
   -4.5169    2.2255   33.9069 C   0  0  0  0  0
   -4.8401    2.4494   34.8805 H   0  0  0  0  0
   -3.8333    1.4291   33.9395 H   0  0  0  0  0
   -2.8780    3.4303   33.3000 H   0  0  0  0  0
   -4.2962    4.3227   33.6639 H   0  0  0  0  0
   -3.5290    3.2899   31.1094 H   0  0  0  0  0
   -4.9479    4.1810   31.4736 H   0  0  0  0  0
   -5.9974    2.1962   30.9789 H   0  0  0  0  0
   -4.6054    1.2608   31.3355 H   0  0  0  0  0
   -6.0064    0.8246   33.1312 H   0  0  0  0  0
   -6.9184    3.6076   32.9139 H   0  0  0  0  0
  -11.8954    1.4953   36.8029 H   0  0  0  0  0
  -11.5574   -1.7695   39.3725 C   0  0  0  0  0
  -12.3779   -1.8911   40.4940 C   0  0  0  0  0
  -12.1435   -2.9047   41.4231 C   0  0  0  0  0
  -11.0887   -3.7967   41.2308 C   0  0  0  0  0
  -10.2681   -3.6753   40.1094 C   0  0  0  0  0
  -10.5023   -2.6617   39.1802 C   0  0  0  0  0
   -9.8846   -2.5702   38.3360 H   0  0  0  0  0
   -9.4741   -4.3469   39.9648 H   0  0  0  0  0
  -10.9123   -4.5597   41.9302 H   0  0  0  0  0
  -12.7612   -2.9961   42.2673 H   0  0  0  0  0
  -13.1720   -1.2196   40.6388 H   0  0  0  0  0
  1  2  2  0  0  0
  2  3  1  0  0  0
  2 36  1  0  0  0
  3  4  2  0  0  0
  3 16  1  0  0  0
  4  5  1  0  0  0
  4 35  1  0  0  0
  5  6  1  0  0  0
  5 14  2  0  0  0
  6  7  1  0  0  0
  6 10  1  0  0  0
  7  8  2  0  0  0
  7 12  1  0  0  0
  8  9  1  0  0  0
  9 10  2  0  0  0
 10 11  1  0  0  0
 12 13  2  0  0  0
 12 19  1  0  0  0
 13 14  1  0  0  0
 14 15  1  0  0  0
 15 16  2  0  0  0
 15 18  1  0  0  0
 16 17  1  0  0  0
 19 20  1  0  0  0
 19 34  1  0  0  0
 20 21  1  0  0  0
 20 24  1  0  0  0
 20 33  1  0  0  0
 21 22  1  0  0  0
 21 31  1  0  0  0
 21 32  1  0  0  0
 22 23  1  0  0  0
 22 29  1  0  0  0
 22 30  1  0  0  0
 23 24  1  0  0  0
 23 27  1  0  0  0
 23 28  1  0  0  0
 24 25  1  0  0  0
 24 26  1  0  0  0
 36 37  1  0  0  0
 36 41  2  0  0  0
 37 38  2  0  0  0
 37 46  1  0  0  0
 38 39  1  0  0  0
 38 45  1  0  0  0
 39 40  2  0  0  0
 39 44  1  0  0  0
 40 41  1  0  0  0
 40 43  1  0  0  0
 41 42  1  0  0  0
M  END
> <CNNaffinity_variance>
0.13655679

> <CNN_VS>
6.757628

> <CNNscore>
0.9472393

> <rmsd>
1.0900346

> <minimizedAffinity>
-9.35022

> <Unaligned Pharm. Score (w/o EVS)>
46.3

> <Pharm. Score>
55.76

> <CNNaffinity>
7.134024

> <Unaligned Pharm. Score>
46.3

$$$$
ZINC06901736
XX    ILIB05142104133D

 55 59  0  0  1  0              1 V2000
  -13.4474   -1.5164   39.5332 O   0  0  0  0  0
  -12.4175   -2.1534   39.2677 C   0  0  0  0  0
  -11.4584   -1.6287   38.3079 C   0  0  0  0  0
  -11.5928   -0.3261   37.8307 C   0  0  0  0  0
  -10.6589    0.1484   36.9116 C   0  0  0  0  0
  -10.7218    1.4396   36.3852 N   0  0  0  0  0
   -9.7920    1.8758   35.4864 C   0  0  0  0  0
  -10.0557    3.1131   35.1352 N   0  0  0  0  0
  -11.1926    3.4974   35.8261 N   0  0  0  0  0
  -11.5777    2.4805   36.5705 C   0  0  0  0  0
  -12.7563    2.5073   37.4544 C   0  0  0  0  0
  -13.4740    1.8269   37.1016 H   0  0  0  0  0
  -12.4695    2.2398   38.4284 H   0  0  0  0  0
  -13.1654    3.4743   37.4632 H   0  0  0  0  0
   -8.7054    1.0404   35.0336 C   0  0  0  0  0
   -8.6241   -0.1795   35.5146 N   0  0  0  0  0
   -9.5867   -0.6449   36.4513 C   0  0  0  0  0
   -9.4762   -1.9471   36.9458 C   0  0  0  0  0
  -10.4062   -2.4357   37.8681 C   0  0  0  0  0
  -10.3098   -3.4164   38.2304 H   0  0  0  0  0
   -8.6908   -2.5657   36.6249 H   0  0  0  0  0
   -7.7791    1.5001   34.1281 N   0  0  0  0  0
   -6.6530    2.2654   34.5718 C   0  0  0  0  0
   -5.3296    1.7642   33.9591 C   0  0  1  0  0
   -4.1721    2.0056   34.9167 C   0  0  0  0  0
   -3.3132    3.0859   34.7143 C   0  0  0  0  0
   -2.2521    3.3073   35.5924 C   0  0  0  0  0
   -2.0502    2.4486   36.6728 C   0  0  0  0  0
   -2.9092    1.3683   36.8753 C   0  0  0  0  0
   -3.9702    1.1469   35.9970 C   0  0  0  0  0
   -4.6168    0.3337   36.1493 H   0  0  0  0  0
   -2.7572    0.7218   37.6886 H   0  0  0  0  0
   -1.2516    2.6153   37.3338 H   0  0  0  0  0
   -1.6054    4.1204   35.4399 H   0  0  0  0  0
   -3.4654    3.7324   33.9011 H   0  0  0  0  0
   -5.3886    0.2893   33.5409 C   0  0  0  0  0
   -4.4722    0.0105   33.1108 H   0  0  0  0  0
   -5.5748   -0.3067   34.3851 H   0  0  0  0  0
   -6.1593    0.1547   32.8405 H   0  0  0  0  0
   -5.1538    2.2788   33.0609 H   0  0  0  0  0
   -6.7810    3.2698   34.2939 H   0  0  0  0  0
   -6.5743    2.1987   35.6167 H   0  0  0  0  0
   -7.8909    1.2983   33.1448 H   0  0  0  0  0
  -12.3775    0.2944   38.1498 H   0  0  0  0  0
  -12.2171   -3.4575   39.9681 C   0  0  0  0  0
  -11.3739   -4.4226   39.4175 C   0  0  0  0  0
  -11.1864   -5.6401   40.0716 C   0  0  0  0  0
  -11.8422   -5.8928   41.2764 C   0  0  0  0  0
  -12.6856   -4.9278   41.8271 C   0  0  0  0  0
  -12.8731   -3.7102   41.1730 C   0  0  0  0  0
  -13.5080   -2.9838   41.5875 H   0  0  0  0  0
  -13.1793   -5.1181   42.7340 H   0  0  0  0  0
  -11.7010   -6.8093   41.7689 H   0  0  0  0  0
  -10.5516   -6.3665   39.6571 H   0  0  0  0  0
  -10.8801   -4.2325   38.5106 H   0  0  0  0  0
  1  2  2  0  0  0
  2  3  1  0  0  0
  2 45  1  0  0  0
  3  4  2  0  0  0
  3 19  1  0  0  0
  4  5  1  0  0  0
  4 44  1  0  0  0
  5  6  1  0  0  0
  5 17  2  0  0  0
  6  7  1  0  0  0
  6 10  1  0  0  0
  7  8  2  0  0  0
  7 15  1  0  0  0
  8  9  1  0  0  0
  9 10  2  0  0  0
 10 11  1  0  0  0
 11 12  1  0  0  0
 11 13  1  0  0  0
 11 14  1  0  0  0
 15 16  2  0  0  0
 15 22  1  0  0  0
 16 17  1  0  0  0
 17 18  1  0  0  0
 18 19  2  0  0  0
 18 21  1  0  0  0
 19 20  1  0  0  0
 22 23  1  0  0  0
 22 43  1  0  0  0
 23 24  1  0  0  0
 23 41  1  0  0  0
 23 42  1  0  0  0
 24 25  1  0  0  0
 24 36  1  0  0  0
 24 40  1  0  0  0
 25 26  1  0  0  0
 25 30  2  0  0  0
 26 27  2  0  0  0
 26 35  1  0  0  0
 27 28  1  0  0  0
 27 34  1  0  0  0
 28 29  2  0  0  0
 28 33  1  0  0  0
 29 30  1  0  0  0
 29 32  1  0  0  0
 30 31  1  0  0  0
 36 37  1  0  0  0
 36 38  1  0  0  0
 36 39  1  0  0  0
 45 46  1  0  0  0
 45 50  2  0  0  0
 46 47  2  0  0  0
 46 55  1  0  0  0
 47 48  1  0  0  0
 47 54  1  0  0  0
 48 49  2  0  0  0
 48 53  1  0  0  0
 49 50  1  0  0  0
 49 52  1  0  0  0
 50 51  1  0  0  0
M  END
> <CNNaffinity_variance>
0.20402491

> <CNN_VS>
6.4526553

> <CNNscore>
0.90853727

> <rmsd>
1.2095262

> <minimizedAffinity>
-9.30068

> <Unaligned Pharm. Score (w/o EVS)>
45.66

> <Pharm. Score>
75.46

> <CNNaffinity>
7.1022463

> <Unaligned Pharm. Score>
45.66

$$$$
ZINC09728763
XX    ILIB05142104133D

 50 53  0  0  1  0              1 V2000
  -11.4765   -1.1771   38.6074 S   0  0  0  0  0
  -12.8539   -0.1598   38.5107 C   0  0  0  0  0
  -12.7634    1.5370   38.1116 S   0  0  0  0  0
  -13.0673    1.4809   36.3254 C   0  0  0  0  0
  -12.1765    2.4269   35.5682 C   0  0  0  0  0
  -10.8971    2.0523   35.4075 N   0  0  0  0  0
  -10.1629    2.9436   34.7223 C   0  0  0  0  0
  -10.5891    4.1121   34.2162 N   0  0  0  0  0
  -11.8885    4.3534   34.4538 C   0  0  0  0  0
  -12.7418    3.5598   35.1205 N   0  0  0  0  0
  -12.4105    5.5660   33.9528 N   0  0  0  0  0
  -11.8125    6.2010   33.4435 H   0  0  0  0  0
  -13.3817    5.7984   34.1038 H   0  0  0  0  0
   -8.8051    2.6192   34.5131 N   0  0  0  0  0
   -7.9715    1.6189   35.0472 C   0  0  0  0  0
   -6.6799    1.4291   34.5556 C   0  0  0  0  0
   -5.8671    0.4330   35.0967 C   0  0  0  0  0
   -6.3458   -0.3733   36.1294 C   0  0  0  0  0
   -7.6372   -0.1835   36.6210 C   0  0  0  0  0
   -8.4501    0.8125   36.0800 C   0  0  0  0  0
   -9.4223    0.9553   36.4500 H   0  0  0  0  0
   -7.9975   -0.7904   37.3985 H   0  0  0  0  0
   -5.7340   -1.1232   36.5366 H   0  0  0  0  0
   -4.8949    0.2902   34.7267 H   0  0  0  0  0
   -6.1418    2.2786   33.4507 C   0  0  0  0  0
   -5.9891    3.2558   33.8032 H   0  0  0  0  0
   -6.8285    2.2963   32.6566 H   0  0  0  0  0
   -5.2296    1.8808   33.1158 H   0  0  0  0  0
   -8.4375    3.2767   33.8401 H   0  0  0  0  0
  -14.0646    1.7461   36.1315 H   0  0  0  0  0
  -12.8882    0.5092   35.9702 H   0  0  0  0  0
  -13.9994   -0.7568   38.7620 N   0  0  0  0  0
  -13.8256   -2.0985   39.0539 N   0  0  0  0  0
  -12.5577   -2.4475   39.0066 C   0  0  0  0  0
  -12.0726   -3.7240   39.2511 N   0  0  0  0  0
  -11.1074   -4.3891   38.4134 C   0  0  0  0  0
  -11.5939   -5.7132   37.9288 C   0  0  0  0  0
  -11.6393   -6.8013   38.8006 C   0  0  0  0  0
  -12.0946   -8.0394   38.3475 C   0  0  0  0  0
  -12.5046   -8.1897   37.0228 C   0  0  0  0  0
  -12.4593   -7.1016   36.1511 C   0  0  0  0  0
  -12.0041   -5.8635   36.6041 C   0  0  0  0  0
  -11.9702   -5.0445   35.9479 H   0  0  0  0  0
  -12.7679   -7.2147   35.1538 H   0  0  0  0  0
  -12.8473   -9.1217   36.6818 H   0  0  0  0  0
  -12.1287   -8.8584   39.0036 H   0  0  0  0  0
  -11.3308   -6.6882   39.7979 H   0  0  0  0  0
  -10.2226   -4.5472   38.9564 H   0  0  0  0  0
  -10.9014   -3.7920   37.5747 H   0  0  0  0  0
  -12.3964   -4.2418   40.0555 H   0  0  0  0  0
  1  2  1  0  0  0
  1 34  1  0  0  0
  2  3  1  0  0  0
  2 32  2  0  0  0
  3  4  1  0  0  0
  4  5  1  0  0  0
  4 30  1  0  0  0
  4 31  1  0  0  0
  5  6  2  0  0  0
  5 10  1  0  0  0
  6  7  1  0  0  0
  7  8  2  0  0  0
  7 14  1  0  0  0
  8  9  1  0  0  0
  9 10  2  0  0  0
  9 11  1  0  0  0
 11 12  1  0  0  0
 11 13  1  0  0  0
 14 15  1  0  0  0
 14 29  1  0  0  0
 15 16  2  0  0  0
 15 20  1  0  0  0
 16 17  1  0  0  0
 16 25  1  0  0  0
 17 18  2  0  0  0
 17 24  1  0  0  0
 18 19  1  0  0  0
 18 23  1  0  0  0
 19 20  2  0  0  0
 19 22  1  0  0  0
 20 21  1  0  0  0
 25 26  1  0  0  0
 25 27  1  0  0  0
 25 28  1  0  0  0
 32 33  1  0  0  0
 33 34  2  0  0  0
 34 35  1  0  0  0
 35 36  1  0  0  0
 35 50  1  0  0  0
 36 37  1  0  0  0
 36 48  1  0  0  0
 36 49  1  0  0  0
 37 38  1  0  0  0
 37 42  2  0  0  0
 38 39  2  0  0  0
 38 47  1  0  0  0
 39 40  1  0  0  0
 39 46  1  0  0  0
 40 41  2  0  0  0
 40 45  1  0  0  0
 41 42  1  0  0  0
 41 44  1  0  0  0
 42 43  1  0  0  0
M  END
> <CNNaffinity_variance>
0.20783861

> <CNN_VS>
6.719482

> <CNNscore>
0.93064415

> <rmsd>
1.1008482

> <minimizedAffinity>
-9.07258

> <Unaligned Pharm. Score (w/o EVS)>
57.05

> <Pharm. Score>
35.76

> <CNNaffinity>
7.220248

> <Unaligned Pharm. Score>
57.05

$$$$
ZINC13131981
XX    ILIB05142104133D

 43 46  0  0  1  0              1 V2000
   -3.1174   -1.1114   35.6698 Cl  0  0  0  0  0
   -4.1514    0.0312   34.8865 C   0  0  0  0  0
   -3.6492    1.0871   34.1258 C   0  0  0  0  0
   -1.9528    1.3409   33.9098 Cl  0  0  0  0  0
   -4.5248    1.9818   33.5105 C   0  0  0  0  0
   -5.9027    1.8205   33.6558 C   0  0  0  0  0
   -6.4050    0.7647   34.4165 C   0  0  0  0  0
   -5.5293   -0.1299   35.0318 C   0  0  0  0  0
   -5.9074   -0.9246   35.6045 H   0  0  0  0  0
   -7.9024    0.5904   34.5719 C   0  0  2  0  0
   -8.5633    1.8910   34.6812 N   0  0  0  0  0
   -9.8087    1.9907   35.1983 C   0  0  0  0  0
  -10.3893    0.9112   35.8136 N   0  0  0  0  0
  -11.6536    1.1759   36.1839 N   0  0  0  0  0
  -11.7530    2.4596   35.8329 C   0  0  0  0  0
  -10.6509    3.0015   35.2323 N   0  0  0  0  0
  -12.8434    3.2485   36.0154 N   0  0  0  0  0
  -12.8248    4.2128   35.7157 H   0  0  0  0  0
  -13.6728    2.8709   36.4507 H   0  0  0  0  0
   -9.7762   -0.4089   35.9566 C   0  0  2  0  0
  -10.1482   -1.0794   37.2634 C   0  0  0  0  0
   -9.8828   -2.4359   37.4517 C   0  0  0  0  0
  -10.2254   -3.0534   38.6545 C   0  0  0  0  0
  -10.8337   -2.3144   39.6691 C   0  0  0  0  0
  -11.1684   -2.9180   40.8423 O   0  0  0  0  0
  -12.0561   -4.0327   40.7687 C   0  0  0  0  0
  -12.4703   -4.2135   41.7165 H   0  0  0  0  0
  -12.8250   -3.8233   40.0850 H   0  0  0  0  0
  -11.5264   -4.8816   40.4506 H   0  0  0  0  0
  -11.0992   -0.9580   39.4811 C   0  0  0  0  0
  -10.7564   -0.3406   38.2781 C   0  0  0  0  0
  -10.9563    0.6804   38.1366 H   0  0  0  0  0
  -11.5570   -0.4018   40.2450 H   0  0  0  0  0
  -10.0254   -4.0743   38.7962 H   0  0  0  0  0
   -9.4251   -2.9923   36.6878 H   0  0  0  0  0
   -8.2470   -0.2894   35.7911 C   0  0  0  0  0
   -7.8345   -1.2445   35.6497 H   0  0  0  0  0
   -7.8346    0.1459   36.6530 H   0  0  0  0  0
  -10.0942   -1.0295   35.1716 H   0  0  0  0  0
   -8.0797    2.7197   34.3656 H   0  0  0  0  0
   -8.2741    0.0782   33.7340 H   0  0  0  0  0
   -6.5618    2.4939   33.1924 H   0  0  0  0  0
   -4.1466    2.7767   32.9380 H   0  0  0  0  0
  1  2  1  0  0  0
  2  3  2  0  0  0
  2  8  1  0  0  0
  3  4  1  0  0  0
  3  5  1  0  0  0
  5  6  2  0  0  0
  5 43  1  0  0  0
  6  7  1  0  0  0
  6 42  1  0  0  0
  7  8  2  0  0  0
  7 10  1  0  0  0
  8  9  1  0  0  0
 10 11  1  0  0  0
 10 36  1  0  0  0
 10 41  1  0  0  0
 11 12  1  0  0  0
 11 40  1  0  0  0
 12 13  1  0  0  0
 12 16  2  0  0  0
 13 14  1  0  0  0
 13 20  1  0  0  0
 14 15  2  0  0  0
 15 16  1  0  0  0
 15 17  1  0  0  0
 17 18  1  0  0  0
 17 19  1  0  0  0
 20 21  1  0  0  0
 20 36  1  0  0  0
 20 39  1  0  0  0
 21 22  1  0  0  0
 21 31  2  0  0  0
 22 23  2  0  0  0
 22 35  1  0  0  0
 23 24  1  0  0  0
 23 34  1  0  0  0
 24 25  1  0  0  0
 24 30  2  0  0  0
 25 26  1  0  0  0
 26 27  1  0  0  0
 26 28  1  0  0  0
 26 29  1  0  0  0
 30 31  1  0  0  0
 30 33  1  0  0  0
 31 32  1  0  0  0
 36 37  1  0  0  0
 36 38  1  0  0  0
M  END
> <CNNaffinity_variance>
0.07275112

> <CNN_VS>
6.327926

> <CNNscore>
0.88606626

> <rmsd>
0.93648016

> <minimizedAffinity>
-9.01347

> <Unaligned Pharm. Score (w/o EVS)>
36.51

> <Pharm. Score>
65.89

> <CNNaffinity>
7.141595

> <Unaligned Pharm. Score>
36.51

$$$$
ZINC19124027
XX    ILIB05142104133D

 56 60  0  0  1  0              1 V2000
  -15.3857    0.6387   32.1283 F   0  0  0  0  0
  -15.1772    1.9347   31.8617 C   0  0  0  0  0
  -14.3599    2.6960   32.6971 C   0  0  0  0  0
  -14.1425    4.0456   32.4193 C   0  0  0  0  0
  -14.7425    4.6337   31.3059 C   0  0  0  0  0
  -15.5599    3.8725   30.4704 C   0  0  0  0  0
  -15.7774    2.5230   30.7483 C   0  0  0  0  0
  -16.3928    1.9500   30.1195 H   0  0  0  0  0
  -16.0115    4.3153   29.6322 H   0  0  0  0  0
  -14.5789    5.6496   31.0966 H   0  0  0  0  0
  -13.2630    4.8659   33.3177 C   0  0  0  0  0
  -13.0866    4.2541   34.5975 N   0  0  0  0  0
  -11.9577    3.4711   34.9228 C   0  0  0  0  0
  -12.1777    2.3915   35.6976 N   0  0  0  0  0
  -11.0778    1.6663   35.9886 C   0  0  0  0  0
   -9.8109    1.9816   35.5416 C   0  0  0  0  0
   -8.6371    1.2061   35.8533 C   0  0  0  0  0
   -7.6553    1.2231   34.9158 O   0  0  0  0  0
   -6.5947    0.4359   35.3479 N   0  0  0  0  0
   -6.9752   -0.0324   36.5399 C   0  0  0  0  0
   -8.2538    0.4209   36.9081 C   0  0  0  0  0
   -8.8961    0.2944   37.7290 H   0  0  0  0  0
   -6.0792   -0.9171   37.3019 C   0  0  0  0  0
   -5.0817   -0.6399   37.1268 H   0  0  0  0  0
   -6.2915   -0.8318   38.3266 H   0  0  0  0  0
   -6.2253   -1.9108   36.9958 H   0  0  0  0  0
   -9.7193    3.1124   34.7559 C   0  0  0  0  0
  -10.7760    3.8833   34.4257 N   0  0  0  0  0
   -8.7595    3.3613   34.4104 H   0  0  0  0  0
  -11.3439    0.5158   36.8197 C   0  0  0  0  0
  -12.2459    0.5859   37.8691 C   0  0  0  0  0
  -12.5417   -0.4520   38.6833 N   0  0  0  0  0
  -11.9004   -1.6150   38.4304 C   0  0  0  0  0
  -12.1705   -2.7218   39.2419 N   0  0  0  0  0
  -13.3843   -2.6952   40.0694 C   0  0  0  0  0
  -13.7715   -4.1167   40.4611 C   0  0  0  0  0
  -12.6741   -4.7773   41.0913 O   0  0  0  0  0
  -11.5757   -4.8986   40.1881 C   0  0  0  0  0
  -11.0647   -3.5212   39.7806 C   0  0  0  0  0
  -10.3212   -3.6292   39.0471 H   0  0  0  0  0
  -10.6602   -3.0379   40.6204 H   0  0  0  0  0
  -10.7969   -5.4273   40.6533 H   0  0  0  0  0
  -11.8851   -5.4156   39.3282 H   0  0  0  0  0
  -14.5847   -4.0785   41.1243 H   0  0  0  0  0
  -14.0489   -4.6452   39.5972 H   0  0  0  0  0
  -14.1691   -2.2584   39.5257 H   0  0  0  0  0
  -13.2039   -2.1324   40.9373 H   0  0  0  0  0
  -10.9825   -1.7882   37.4070 C   0  0  0  0  0
  -10.7044   -0.6974   36.5909 C   0  0  0  0  0
  -10.0147   -0.7872   35.8043 H   0  0  0  0  0
  -10.5215   -2.7213   37.2676 H   0  0  0  0  0
  -12.7111    1.5160   38.0141 H   0  0  0  0  0
  -13.8135    4.4017   35.2831 H   0  0  0  0  0
  -12.3290    4.9763   32.8508 H   0  0  0  0  0
  -13.7073    5.8095   33.4392 H   0  0  0  0  0
  -13.9082    2.2532   33.5352 H   0  0  0  0  0
  1  2  1  0  0  0
  2  3  1  0  0  0
  2  7  2  0  0  0
  3  4  2  0  0  0
  3 56  1  0  0  0
  4  5  1  0  0  0
  4 11  1  0  0  0
  5  6  2  0  0  0
  5 10  1  0  0  0
  6  7  1  0  0  0
  6  9  1  0  0  0
  7  8  1  0  0  0
 11 12  1  0  0  0
 11 54  1  0  0  0
 11 55  1  0  0  0
 12 13  1  0  0  0
 12 53  1  0  0  0
 13 14  2  0  0  0
 13 28  1  0  0  0
 14 15  1  0  0  0
 15 16  2  0  0  0
 15 30  1  0  0  0
 16 17  1  0  0  0
 16 27  1  0  0  0
 17 18  1  0  0  0
 17 21  2  0  0  0
 18 19  1  0  0  0
 19 20  2  0  0  0
 20 21  1  0  0  0
 20 23  1  0  0  0
 21 22  1  0  0  0
 23 24  1  0  0  0
 23 25  1  0  0  0
 23 26  1  0  0  0
 27 28  2  0  0  0
 27 29  1  0  0  0
 30 31  2  0  0  0
 30 49  1  0  0  0
 31 32  1  0  0  0
 31 52  1  0  0  0
 32 33  2  0  0  0
 33 34  1  0  0  0
 33 48  1  0  0  0
 34 35  1  0  0  0
 34 39  1  0  0  0
 35 36  1  0  0  0
 35 46  1  0  0  0
 35 47  1  0  0  0
 36 37  1  0  0  0
 36 44  1  0  0  0
 36 45  1  0  0  0
 37 38  1  0  0  0
 38 39  1  0  0  0
 38 42  1  0  0  0
 38 43  1  0  0  0
 39 40  1  0  0  0
 39 41  1  0  0  0
 48 49  2  0  0  0
 48 51  1  0  0  0
 49 50  1  0  0  0
M  END
> <CNNaffinity_variance>
0.20498681

> <CNN_VS>
5.100797

> <CNNscore>
0.6958987

> <rmsd>
1.1010164

> <minimizedAffinity>
-9.37241

> <Unaligned Pharm. Score (w/o EVS)>
45.98

> <Pharm. Score>
55.09

> <CNNaffinity>
7.329798

> <Unaligned Pharm. Score>
45.98

$$$$
ZINC20939758
XX    ILIB05142104133D

 57 61  0  0  1  0              1 V2000
   -9.8643   -2.0672   38.7560 O   0  0  0  0  0
  -11.1036   -2.0308   38.7558 C   0  0  0  0  0
  -11.8035   -0.9087   38.1494 C   0  0  0  0  0
  -11.1137   -0.0215   37.3250 C   0  0  0  0  0
  -11.8110    1.0440   36.7589 C   0  0  0  0  0
  -11.1953    1.9766   35.9226 N   0  0  0  0  0
  -11.9051    3.0098   35.3830 C   0  0  0  0  0
  -11.1188    3.7508   34.6367 N   0  0  0  0  0
   -9.8565    3.1841   34.6905 N   0  0  0  0  0
   -9.9220    2.1211   35.4665 C   0  0  0  0  0
   -8.7727    1.2492   35.7670 C   0  0  0  0  0
   -8.2260    1.6540   36.5668 H   0  0  0  0  0
   -8.1553    1.1799   34.9206 H   0  0  0  0  0
   -9.1180    0.2925   36.0277 H   0  0  0  0  0
  -13.3129    3.1965   35.6412 C   0  0  0  0  0
  -13.9158    2.3319   36.4253 N   0  0  0  0  0
  -13.1869    1.2516   36.9933 C   0  0  0  0  0
  -13.8534    0.3472   37.8240 C   0  0  0  0  0
  -13.1659   -0.7259   38.3985 C   0  0  0  0  0
  -13.6805   -1.3970   39.0208 H   0  0  0  0  0
  -14.8774    0.4713   38.0204 H   0  0  0  0  0
  -14.0092    4.2440   35.0865 N   0  0  0  0  0
  -14.7041    5.1741   35.9247 C   0  0  0  0  0
  -16.1469    5.3495   35.4724 C   0  0  2  0  0
  -16.8926    6.1780   36.5168 N   0  0  0  0  0
  -18.1069    5.3835   36.9397 C   0  0  0  0  0
  -17.6733    3.9519   36.7156 C   0  0  0  0  0
  -16.9211    4.0334   35.4006 C   0  0  0  0  0
  -17.5752    4.0564   34.5796 H   0  0  0  0  0
  -16.2468    3.2363   35.2887 H   0  0  0  0  0
  -17.0646    3.6416   37.5129 H   0  0  0  0  0
  -18.5205    3.3340   36.6610 H   0  0  0  0  0
  -18.3243    5.5860   37.9468 H   0  0  0  0  0
  -18.9275    5.6543   36.3432 H   0  0  0  0  0
  -17.2087    7.5741   36.0826 C   0  0  0  0  0
  -17.8234    8.3291   37.2409 C   0  0  0  0  0
  -18.6386    7.7862   37.6193 H   0  0  0  0  0
  -18.1525    9.2697   36.9103 H   0  0  0  0  0
  -17.1056    8.4552   37.9968 H   0  0  0  0  0
  -16.3259    8.0542   35.7781 H   0  0  0  0  0
  -17.8864    7.5464   35.2810 H   0  0  0  0  0
  -16.1721    5.8468   34.5479 H   0  0  0  0  0
  -14.7033    4.8221   36.9140 H   0  0  0  0  0
  -14.2245    6.1073   35.8849 H   0  0  0  0  0
  -14.0323    4.3603   34.0835 H   0  0  0  0  0
  -10.0897   -0.1431   37.1271 H   0  0  0  0  0
  -11.8241   -3.1720   39.3962 C   0  0  0  0  0
  -11.2368   -4.4366   39.4299 C   0  0  0  0  0
  -11.9093   -5.5023   40.0280 C   0  0  0  0  0
  -13.1691   -5.3031   40.5925 C   0  0  0  0  0
  -13.7567   -4.0385   40.5588 C   0  0  0  0  0
  -13.0841   -2.9728   39.9608 C   0  0  0  0  0
  -13.5261   -2.0207   39.9355 H   0  0  0  0  0
  -14.7052   -3.8886   40.9836 H   0  0  0  0  0
  -13.6753   -6.1052   41.0430 H   0  0  0  0  0
  -11.4671   -6.4543   40.0533 H   0  0  0  0  0
  -10.2884   -4.5865   39.0050 H   0  0  0  0  0
  1  2  2  0  0  0
  2  3  1  0  0  0
  2 47  1  0  0  0
  3  4  2  0  0  0
  3 19  1  0  0  0
  4  5  1  0  0  0
  4 46  1  0  0  0
  5  6  1  0  0  0
  5 17  2  0  0  0
  6  7  1  0  0  0
  6 10  1  0  0  0
  7  8  2  0  0  0
  7 15  1  0  0  0
  8  9  1  0  0  0
  9 10  2  0  0  0
 10 11  1  0  0  0
 11 12  1  0  0  0
 11 13  1  0  0  0
 11 14  1  0  0  0
 15 16  2  0  0  0
 15 22  1  0  0  0
 16 17  1  0  0  0
 17 18  1  0  0  0
 18 19  2  0  0  0
 18 21  1  0  0  0
 19 20  1  0  0  0
 22 23  1  0  0  0
 22 45  1  0  0  0
 23 24  1  0  0  0
 23 43  1  0  0  0
 23 44  1  0  0  0
 24 25  1  0  0  0
 24 28  1  0  0  0
 24 42  1  0  0  0
 25 26  1  0  0  0
 25 35  1  0  0  0
 26 27  1  0  0  0
 26 33  1  0  0  0
 26 34  1  0  0  0
 27 28  1  0  0  0
 27 31  1  0  0  0
 27 32  1  0  0  0
 28 29  1  0  0  0
 28 30  1  0  0  0
 35 36  1  0  0  0
 35 40  1  0  0  0
 35 41  1  0  0  0
 36 37  1  0  0  0
 36 38  1  0  0  0
 36 39  1  0  0  0
 47 48  1  0  0  0
 47 52  2  0  0  0
 48 49  2  0  0  0
 48 57  1  0  0  0
 49 50  1  0  0  0
 49 56  1  0  0  0
 50 51  2  0  0  0
 50 55  1  0  0  0
 51 52  1  0  0  0
 51 54  1  0  0  0
 52 53  1  0  0  0
M  END
> <CNNaffinity_variance>
0.049468167

> <CNN_VS>
7.356089

> <CNNscore>
0.9761037

> <rmsd>
0.9593973

> <minimizedAffinity>
-9.05501

> <Unaligned Pharm. Score (w/o EVS)>
65.72

> <Pharm. Score>
67.66

> <CNNaffinity>
7.5361757

> <Unaligned Pharm. Score>
65.72

$$$$
ZINC20939765
XX    ILIB05142104133D

 48 52  0  0  1  0              1 V2000
   -8.4293   -1.7659   37.0802 O   0  0  0  0  0
   -7.9219   -0.8941   36.3594 C   0  0  0  0  0
   -8.7228    0.2259   35.8896 C   0  0  0  0  0
  -10.0152    0.4107   36.3778 C   0  0  0  0  0
  -10.7583    1.4922   35.9089 C   0  0  0  0  0
  -12.0587    1.7478   36.3466 N   0  0  0  0  0
  -12.7616    2.8156   35.8685 C   0  0  0  0  0
  -13.9521    2.8510   36.4210 N   0  0  0  0  0
  -14.0293    1.7731   37.2871 N   0  0  0  0  0
  -12.8845    1.1233   37.2286 C   0  0  0  0  0
  -12.5839   -0.0866   38.0143 C   0  0  0  0  0
  -13.3701   -0.2727   38.6849 H   0  0  0  0  0
  -12.4745   -0.9061   37.3670 H   0  0  0  0  0
  -11.6928    0.0570   38.5508 H   0  0  0  0  0
  -12.2100    3.7295   34.8968 C   0  0  0  0  0
  -10.9873    3.5106   34.4690 N   0  0  0  0  0
  -10.2457    2.4017   34.9597 C   0  0  0  0  0
   -8.9476    2.1923   34.4867 C   0  0  0  0  0
   -8.1912    1.1114   34.9489 C   0  0  0  0  0
   -7.2172    0.9675   34.5840 H   0  0  0  0  0
   -8.5342    2.8491   33.7795 H   0  0  0  0  0
  -12.9352    4.7997   34.4291 N   0  0  0  0  0
  -13.4162    5.7983   35.3358 C   0  0  0  0  0
  -12.5989    7.0560   35.2713 C   0  0  0  0  0
  -13.2276    8.2953   35.2227 C   0  0  0  0  0
  -12.4287    9.4259   35.1642 C   0  0  0  0  0
  -11.0772    9.3978   35.1513 N   0  0  0  0  0
  -10.5017    8.1755   35.1995 C   0  0  0  0  0
  -11.2101    6.9863   35.2599 C   0  0  0  0  0
  -10.6971    6.0708   35.2954 H   0  0  0  0  0
   -9.4555    8.0871   35.1923 H   0  0  0  0  0
  -12.9351   10.3450   35.1286 H   0  0  0  0  0
  -14.2732    8.3910   35.2293 H   0  0  0  0  0
  -14.4094    6.0397   35.0958 H   0  0  0  0  0
  -13.3732    5.4291   36.3179 H   0  0  0  0  0
  -13.1311    4.8842   33.4418 H   0  0  0  0  0
  -10.4310   -0.2450   37.0847 H   0  0  0  0  0
   -6.4787   -1.0496   36.0064 C   0  0  0  0  0
   -5.6430   -1.8227   36.8126 C   0  0  0  0  0
   -4.2956   -1.9683   36.4829 C   0  0  0  0  0
   -3.7836   -1.3411   35.3472 C   0  0  0  0  0
   -4.6193   -0.5681   34.5410 C   0  0  0  0  0
   -5.9667   -0.4225   34.8706 C   0  0  0  0  0
   -6.5957    0.1593   34.2636 H   0  0  0  0  0
   -4.2340   -0.0959   33.6860 H   0  0  0  0  0
   -2.7693   -1.4508   35.0991 H   0  0  0  0  0
   -3.6665   -2.5502   37.0897 H   0  0  0  0  0
   -6.0284   -2.2950   37.6676 H   0  0  0  0  0
  1  2  2  0  0  0
  2  3  1  0  0  0
  2 38  1  0  0  0
  3  4  2  0  0  0
  3 19  1  0  0  0
  4  5  1  0  0  0
  4 37  1  0  0  0
  5  6  1  0  0  0
  5 17  2  0  0  0
  6  7  1  0  0  0
  6 10  1  0  0  0
  7  8  2  0  0  0
  7 15  1  0  0  0
  8  9  1  0  0  0
  9 10  2  0  0  0
 10 11  1  0  0  0
 11 12  1  0  0  0
 11 13  1  0  0  0
 11 14  1  0  0  0
 15 16  2  0  0  0
 15 22  1  0  0  0
 16 17  1  0  0  0
 17 18  1  0  0  0
 18 19  2  0  0  0
 18 21  1  0  0  0
 19 20  1  0  0  0
 22 23  1  0  0  0
 22 36  1  0  0  0
 23 24  1  0  0  0
 23 34  1  0  0  0
 23 35  1  0  0  0
 24 25  1  0  0  0
 24 29  2  0  0  0
 25 26  2  0  0  0
 25 33  1  0  0  0
 26 27  1  0  0  0
 26 32  1  0  0  0
 27 28  2  0  0  0
 28 29  1  0  0  0
 28 31  1  0  0  0
 29 30  1  0  0  0
 38 39  1  0  0  0
 38 43  2  0  0  0
 39 40  2  0  0  0
 39 48  1  0  0  0
 40 41  1  0  0  0
 40 47  1  0  0  0
 41 42  2  0  0  0
 41 46  1  0  0  0
 42 43  1  0  0  0
 42 45  1  0  0  0
 43 44  1  0  0  0
M  END
> <CNNaffinity_variance>
0.21951051

> <CNN_VS>
6.4903555

> <CNNscore>
0.90172374

> <rmsd>
1.0711185

> <minimizedAffinity>
-9.25157

> <Unaligned Pharm. Score (w/o EVS)>
45.6

> <Pharm. Score>
65.83

> <CNNaffinity>
7.1977205

> <Unaligned Pharm. Score>
45.6

$$$$
ZINC32540567
XX    ILIB05142104133D

 46 48  0  0  1  0              1 V2000
   -4.7888    2.8510   32.4556 O   0  0  0  0  0
   -5.7884    2.3272   31.9458 C   0  0  0  0  0
   -5.8016    1.7276   30.6730 N   0  0  0  0  0
   -4.6154    1.6712   29.8303 C   0  0  0  0  0
   -4.8404    1.1563   28.9434 H   0  0  0  0  0
   -4.3036    2.6468   29.5991 H   0  0  0  0  0
   -3.8469    1.1699   30.3408 H   0  0  0  0  0
   -7.0064    1.1210   30.1114 C   0  0  0  0  0
   -6.7414    0.4854   29.3187 H   0  0  0  0  0
   -7.6452    1.8751   29.7567 H   0  0  0  0  0
   -7.4985    0.5666   30.8550 H   0  0  0  0  0
   -7.0179    2.3589   32.7218 C   0  0  0  0  0
   -7.2294    1.4207   33.7323 C   0  0  0  0  0
   -8.4085    1.4512   34.4766 C   0  0  0  0  0
   -9.3764    2.4199   34.2105 C   0  0  0  0  0
  -10.5994    2.4517   34.9828 C   0  0  0  0  0
  -10.7078    1.5580   35.9791 N   0  0  0  0  0
  -11.8665    1.6481   36.6517 C   0  0  0  0  0
  -12.8646    2.5146   36.4155 N   0  0  0  0  0
  -12.6165    3.3465   35.3912 C   0  0  0  0  0
  -11.5100    3.3740   34.6312 N   0  0  0  0  0
  -13.6226    4.2869   35.0804 N   0  0  0  0  0
  -13.4890    4.9362   34.3183 H   0  0  0  0  0
  -14.4761    4.3104   35.6200 H   0  0  0  0  0
  -12.0537    0.7386   37.7154 N   0  0  0  0  0
  -11.4418   -0.4866   38.0397 C   0  0  0  0  0
  -10.3284   -0.9219   37.3210 C   0  0  0  0  0
   -9.7218   -2.1361   37.6423 C   0  0  0  0  0
  -10.2289   -2.9153   38.6824 C   0  0  0  0  0
  -11.3424   -2.4801   39.4010 C   0  0  0  0  0
  -11.9489   -1.2658   39.0797 C   0  0  0  0  0
  -12.7871   -0.9381   39.6205 H   0  0  0  0  0
  -11.7241   -3.0666   40.1838 H   0  0  0  0  0
   -9.5806   -4.2136   39.0259 C   0  0  0  0  0
   -8.5748   -4.0468   39.2773 H   0  0  0  0  0
  -10.0780   -4.6481   39.8421 H   0  0  0  0  0
   -9.6323   -4.8599   38.2000 H   0  0  0  0  0
   -8.8836   -2.4636   37.1015 H   0  0  0  0  0
   -9.9468   -0.3355   36.5380 H   0  0  0  0  0
  -12.7803    1.1128   38.3087 H   0  0  0  0  0
   -9.1647    3.3579   33.2002 C   0  0  0  0  0
   -7.9856    3.3275   32.4558 C   0  0  0  0  0
   -7.8264    4.0337   31.6953 H   0  0  0  0  0
   -9.8932    4.0872   32.9998 H   0  0  0  0  0
   -8.5676    0.7451   35.2372 H   0  0  0  0  0
   -6.5009    0.6914   33.9325 H   0  0  0  0  0
  1  2  2  0  0  0
  2  3  1  0  0  0
  2 12  1  0  0  0
  3  4  1  0  0  0
  3  8  1  0  0  0
  4  5  1  0  0  0
  4  6  1  0  0  0
  4  7  1  0  0  0
  8  9  1  0  0  0
  8 10  1  0  0  0
  8 11  1  0  0  0
 12 13  2  0  0  0
 12 42  1  0  0  0
 13 14  1  0  0  0
 13 46  1  0  0  0
 14 15  2  0  0  0
 14 45  1  0  0  0
 15 16  1  0  0  0
 15 41  1  0  0  0
 16 17  2  0  0  0
 16 21  1  0  0  0
 17 18  1  0  0  0
 18 19  2  0  0  0
 18 25  1  0  0  0
 19 20  1  0  0  0
 20 21  2  0  0  0
 20 22  1  0  0  0
 22 23  1  0  0  0
 22 24  1  0  0  0
 25 26  1  0  0  0
 25 40  1  0  0  0
 26 27  1  0  0  0
 26 31  2  0  0  0
 27 28  2  0  0  0
 27 39  1  0  0  0
 28 29  1  0  0  0
 28 38  1  0  0  0
 29 30  2  0  0  0
 29 34  1  0  0  0
 30 31  1  0  0  0
 30 33  1  0  0  0
 31 32  1  0  0  0
 34 35  1  0  0  0
 34 36  1  0  0  0
 34 37  1  0  0  0
 41 42  2  0  0  0
 41 44  1  0  0  0
 42 43  1  0  0  0
M  END
> <CNNaffinity_variance>
0.059763275

> <CNN_VS>
6.9034276

> <CNNscore>
0.9747689

> <rmsd>
1.0769471

> <minimizedAffinity>
-9.36121

> <Unaligned Pharm. Score (w/o EVS)>
46.39

> <Pharm. Score>
46.58

> <CNNaffinity>
7.0821176

> <Unaligned Pharm. Score>
46.39

$$$$
ZINC32541042
XX    ILIB05142104133D

 46 48  0  0  1  0              1 V2000
  -11.5058   -3.7233   40.7890 O   0  0  0  0  0
  -12.1328   -3.8404   39.5065 C   0  0  1  0  0
  -11.9109   -2.5819   38.7378 C   0  0  0  0  0
  -13.0012   -1.8300   38.3007 C   0  0  0  0  0
  -12.7935   -0.6528   37.5818 C   0  0  0  0  0
  -11.4952   -0.2274   37.3002 C   0  0  0  0  0
  -11.2797    0.9934   36.5548 C   0  0  0  0  0
  -10.0150    1.2654   36.1939 N   0  0  0  0  0
   -9.8923    2.4111   35.5046 C   0  0  0  0  0
  -10.8823    3.2543   35.1697 N   0  0  0  0  0
  -12.0907    2.8537   35.5966 C   0  0  0  0  0
  -12.3654    1.7388   36.2923 N   0  0  0  0  0
  -13.1832    3.6914   35.2838 N   0  0  0  0  0
  -14.1147    3.4388   35.5818 H   0  0  0  0  0
  -13.0335    4.5431   34.7621 H   0  0  0  0  0
   -8.5898    2.7647   35.0904 N   0  0  0  0  0
   -7.3172    2.5266   35.6426 C   0  0  0  0  0
   -6.2600    3.3898   35.3557 C   0  0  0  0  0
   -4.9988    3.1538   35.9030 C   0  0  0  0  0
   -4.7949    2.0542   36.7367 C   0  0  0  0  0
   -5.8523    1.1909   37.0235 C   0  0  0  0  0
   -7.1135    1.4270   36.4764 C   0  0  0  0  0
   -7.9094    0.7771   36.6922 H   0  0  0  0  0
   -5.6988    0.3633   37.6513 H   0  0  0  0  0
   -3.4465    1.8018   37.3216 C   0  0  0  0  0
   -3.1671    0.8060   37.1402 H   0  0  0  0  0
   -2.7467    2.4478   36.8794 H   0  0  0  0  0
   -3.4763    1.9739   38.3569 H   0  0  0  0  0
   -4.2029    3.8039   35.6874 H   0  0  0  0  0
   -6.4135    4.2173   34.7279 H   0  0  0  0  0
   -8.6772    3.2838   34.2284 H   0  0  0  0  0
  -10.4047   -0.9794   37.7374 C   0  0  0  0  0
  -10.6125   -2.1567   38.4563 C   0  0  0  0  0
   -9.7917   -2.7227   38.7854 H   0  0  0  0  0
   -9.4275   -0.6594   37.5254 H   0  0  0  0  0
  -13.6144   -0.0869   37.2527 H   0  0  0  0  0
  -13.9785   -2.1501   38.5127 H   0  0  0  0  0
  -11.5596   -5.0771   38.8129 C   0  0  0  0  0
  -12.1034   -5.2701   37.9357 H   0  0  0  0  0
  -11.6294   -5.9035   39.4569 H   0  0  0  0  0
  -10.5524   -4.9068   38.5699 H   0  0  0  0  0
  -13.1629   -3.9995   39.6337 H   0  0  0  0  0
  -12.2588   -4.3887   41.7883 C   0  0  0  0  0
  -13.2455   -4.5195   41.4540 H   0  0  0  0  0
  -12.2601   -3.8134   42.6667 H   0  0  0  0  0
  -11.8285   -5.3262   41.9846 H   0  0  0  0  0
  1  2  1  0  0  0
  1 43  1  0  0  0
  2  3  1  0  0  0
  2 38  1  0  0  0
  2 42  1  0  0  0
  3  4  2  0  0  0
  3 33  1  0  0  0
  4  5  1  0  0  0
  4 37  1  0  0  0
  5  6  2  0  0  0
  5 36  1  0  0  0
  6  7  1  0  0  0
  6 32  1  0  0  0
  7  8  2  0  0  0
  7 12  1  0  0  0
  8  9  1  0  0  0
  9 10  2  0  0  0
  9 16  1  0  0  0
 10 11  1  0  0  0
 11 12  2  0  0  0
 11 13  1  0  0  0
 13 14  1  0  0  0
 13 15  1  0  0  0
 16 17  1  0  0  0
 16 31  1  0  0  0
 17 18  1  0  0  0
 17 22  2  0  0  0
 18 19  2  0  0  0
 18 30  1  0  0  0
 19 20  1  0  0  0
 19 29  1  0  0  0
 20 21  2  0  0  0
 20 25  1  0  0  0
 21 22  1  0  0  0
 21 24  1  0  0  0
 22 23  1  0  0  0
 25 26  1  0  0  0
 25 27  1  0  0  0
 25 28  1  0  0  0
 32 33  2  0  0  0
 32 35  1  0  0  0
 33 34  1  0  0  0
 38 39  1  0  0  0
 38 40  1  0  0  0
 38 41  1  0  0  0
 43 44  1  0  0  0
 43 45  1  0  0  0
 43 46  1  0  0  0
M  END
> <CNNaffinity_variance>
0.05302968

> <CNN_VS>
6.8860126

> <CNNscore>
0.9836066

> <rmsd>
0.9842919

> <minimizedAffinity>
-9.01175

> <Unaligned Pharm. Score (w/o EVS)>
56.96

> <Pharm. Score>
66.25

> <CNNaffinity>
7.000779

> <Unaligned Pharm. Score>
56.96

$$$$
ZINC72440415
XX    ILIB05142104133D

 41 44  0  0  1  0              1 V2000
   -7.2707    0.1411   32.1432 Cl  0  0  0  0  0
   -6.1113    0.4411   33.3879 C   0  0  0  0  0
   -6.2268    1.5368   34.2433 C   0  0  0  0  0
   -7.2869    2.4388   34.1286 N   0  0  0  0  0
   -8.5506    2.3311   34.6461 C   0  0  0  0  0
   -8.7448    1.2960   35.5544 N   0  0  0  0  0
   -9.9481    1.0233   36.1852 C   0  0  0  0  0
  -10.0803    0.1032   36.9828 O   0  0  0  0  0
  -11.0398    1.9376   35.8101 C   0  0  0  0  0
  -10.7819    2.9543   34.8949 C   0  0  0  0  0
   -9.5159    3.1422   34.3135 N   0  0  0  0  0
  -11.7342    3.8318   34.5015 N   0  0  0  0  0
  -12.9679    3.6846   35.0381 C   0  0  0  0  0
  -13.3070    2.7019   35.9536 C   0  0  0  0  0
  -12.3184    1.8093   36.3468 C   0  0  0  0  0
  -12.6971    0.7885   37.3049 C   0  0  0  0  0
  -13.4240    1.1355   38.4438 C   0  0  0  0  0
  -13.7887    0.1532   39.3644 C   0  0  0  0  0
  -13.4268   -1.1762   39.1462 C   0  0  0  0  0
  -13.7967   -2.1750   40.0849 N   0  3  0  0  0
  -13.1043   -3.2183   40.1676 O   0  0  0  0  0
  -14.8060   -1.9875   40.8065 O   0  0  0  0  0
  -14.9548   -2.8097   41.4089 H   0  0  0  0  0
  -12.7001   -1.5231   38.0073 C   0  0  0  0  0
  -12.3353   -0.5409   37.0866 C   0  0  0  0  0
  -11.7883   -0.8021   36.2293 H   0  0  0  0  0
  -12.4276   -2.5237   37.8429 H   0  0  0  0  0
  -14.3358    0.4144   40.2218 H   0  0  0  0  0
  -13.6964    2.1362   38.6080 H   0  0  0  0  0
  -14.2865    2.6487   36.3281 H   0  0  0  0  0
  -13.7410    4.3404   34.7646 H   0  0  0  0  0
   -7.9342    0.7242   35.7443 H   0  0  0  0  0
   -7.1657    3.2971   33.6103 H   0  0  0  0  0
   -5.2721    1.7490   35.2378 C   0  0  0  0  0
   -4.2018    0.8653   35.3770 C   0  0  0  0  0
   -4.0862   -0.2304   34.5217 C   0  0  0  0  0
   -5.0408   -0.4426   33.5273 C   0  0  0  0  0
   -4.9539   -1.2675   32.8835 H   0  0  0  0  0
   -3.2805   -0.8954   34.6264 H   0  0  0  0  0
   -3.4832    1.0249   36.1258 H   0  0  0  0  0
   -5.3591    2.5739   35.8816 H   0  0  0  0  0
  1  2  1  0  0  0
  2  3  2  0  0  0
  2 37  1  0  0  0
  3  4  1  0  0  0
  3 34  1  0  0  0
  4  5  1  0  0  0
  4 33  1  0  0  0
  5  6  1  0  0  0
  5 11  2  0  0  0
  6  7  1  0  0  0
  6 32  1  0  0  0
  7  8  2  0  0  0
  7  9  1  0  0  0
  9 10  2  0  0  0
  9 15  1  0  0  0
 10 11  1  0  0  0
 10 12  1  0  0  0
 12 13  2  0  0  0
 13 14  1  0  0  0
 13 31  1  0  0  0
 14 15  2  0  0  0
 14 30  1  0  0  0
 15 16  1  0  0  0
 16 17  1  0  0  0
 16 25  2  0  0  0
 17 18  2  0  0  0
 17 29  1  0  0  0
 18 19  1  0  0  0
 18 28  1  0  0  0
 19 20  1  0  0  0
 19 24  2  0  0  0
 20 21  2  0  0  0
 20 22  1  0  0  0
 22 23  1  0  0  0
 24 25  1  0  0  0
 24 27  1  0  0  0
 25 26  1  0  0  0
 34 35  2  0  0  0
 34 41  1  0  0  0
 35 36  1  0  0  0
 35 40  1  0  0  0
 36 37  2  0  0  0
 36 39  1  0  0  0
 37 38  1  0  0  0
M  END
> <CNNaffinity_variance>
0.16677585

> <CNN_VS>
6.107127

> <CNNscore>
0.86074406

> <rmsd>
0.9511579

> <minimizedAffinity>
-9.03183

> <Unaligned Pharm. Score (w/o EVS)>
35.1

> <Pharm. Score>
66.28

> <CNNaffinity>
7.095172

> <Unaligned Pharm. Score>
35.1

$$$$
ZINC23432014
XX    ILIB05142104133D

 42 45  0  0  1  0              1 V2000
   -7.9846   -0.0204   35.3662 F   0  0  0  0  0
   -6.9969    0.5080   34.6304 C   0  0  0  0  0
   -7.2771    1.4633   33.6534 C   0  0  0  0  0
   -6.2421    2.0071   32.8925 C   0  0  0  0  0
   -6.5014    2.9254   31.9512 F   0  0  0  0  0
   -4.9270    1.5954   33.1085 C   0  0  0  0  0
   -4.6469    0.6400   34.0855 C   0  0  0  0  0
   -5.6818    0.0964   34.8465 C   0  0  0  0  0
   -5.4709   -0.6227   35.5819 H   0  0  0  0  0
   -3.6570    0.3301   34.2482 H   0  0  0  0  0
   -4.1480    2.0045   32.5356 H   0  0  0  0  0
   -8.6927    1.9064   33.4205 C   0  0  0  0  0
   -9.0969    2.9248   34.3496 N   0  0  0  0  0
  -10.1665    2.7279   35.1755 C   0  0  0  0  0
  -11.1912    3.6811   35.1467 N   0  0  0  0  0
  -11.2891    4.8067   34.3917 N   0  0  0  0  0
  -12.4525    5.3146   34.7866 C   0  0  0  0  0
  -13.1152    4.6081   35.7371 N   0  0  0  0  0
  -12.3210    3.5810   35.9629 C   0  0  0  0  0
  -12.4765    2.5372   36.8236 N   0  0  0  0  0
  -11.5334    1.6400   36.8446 C   0  0  0  0  0
  -11.6682    0.4821   37.7675 C   0  0  0  0  0
  -10.7461   -0.5633   37.7148 C   0  0  0  0  0
  -10.8729   -1.6496   38.5804 C   0  0  0  0  0
  -11.9220   -1.6909   39.4987 C   0  0  0  0  0
  -12.0450   -2.7503   40.3438 O   0  0  0  0  0
  -13.1461   -3.6312   40.1255 C   0  0  0  0  0
  -13.4852   -4.0027   41.0473 H   0  0  0  0  0
  -13.9237   -3.1087   39.6514 H   0  0  0  0  0
  -12.8397   -4.4304   39.5174 H   0  0  0  0  0
  -12.8443   -0.6456   39.5514 C   0  0  0  0  0
  -12.7173    0.4406   38.6858 C   0  0  0  0  0
  -13.4116    1.2273   38.7256 H   0  0  0  0  0
  -13.6341   -0.6767   40.2426 H   0  0  0  0  0
  -10.1787   -2.4364   38.5406 H   0  0  0  0  0
   -9.9564   -0.5325   37.0234 H   0  0  0  0  0
  -10.2889    1.6846   36.0130 C   0  0  0  0  0
   -9.5339    0.9562   36.0582 H   0  0  0  0  0
  -12.8045    6.2098   34.3657 H   0  0  0  0  0
   -8.5819    3.7928   34.3885 H   0  0  0  0  0
   -9.3193    1.0701   33.5234 H   0  0  0  0  0
   -8.7632    2.2782   32.4411 H   0  0  0  0  0
  1  2  1  0  0  0
  2  3  1  0  0  0
  2  8  2  0  0  0
  3  4  2  0  0  0
  3 12  1  0  0  0
  4  5  1  0  0  0
  4  6  1  0  0  0
  6  7  2  0  0  0
  6 11  1  0  0  0
  7  8  1  0  0  0
  7 10  1  0  0  0
  8  9  1  0  0  0
 12 13  1  0  0  0
 12 41  1  0  0  0
 12 42  1  0  0  0
 13 14  1  0  0  0
 13 40  1  0  0  0
 14 15  1  0  0  0
 14 37  2  0  0  0
 15 16  1  0  0  0
 15 19  1  0  0  0
 16 17  2  0  0  0
 17 18  1  0  0  0
 17 39  1  0  0  0
 18 19  2  0  0  0
 19 20  1  0  0  0
 20 21  2  0  0  0
 21 22  1  0  0  0
 21 37  1  0  0  0
 22 23  1  0  0  0
 22 32  2  0  0  0
 23 24  2  0  0  0
 23 36  1  0  0  0
 24 25  1  0  0  0
 24 35  1  0  0  0
 25 26  1  0  0  0
 25 31  2  0  0  0
 26 27  1  0  0  0
 27 28  1  0  0  0
 27 29  1  0  0  0
 27 30  1  0  0  0
 31 32  1  0  0  0
 31 34  1  0  0  0
 32 33  1  0  0  0
 37 38  1  0  0  0
M  END
> <CNNaffinity_variance>
0.06674527

> <CNN_VS>
7.222314

> <CNNscore>
0.98108786

> <rmsd>
0.8850626

> <minimizedAffinity>
-9.38183

> <Unaligned Pharm. Score (w/o EVS)>
66.18

> <Pharm. Score>
65.42

> <CNNaffinity>
7.3615365

> <Unaligned Pharm. Score>
66.18

$$$$
ZINC06083088
XX    ILIB05142104133D

 46 49  0  0  1  0              1 V2000
   -6.6698    0.3780   35.1377 O   0  0  0  0  0
   -7.3650    1.4211   35.1573 N   0  3  0  0  0
   -6.8606    2.5628   35.0391 O   0  0  0  0  0
   -7.3095    3.2072   35.7056 H   0  0  0  0  0
   -8.7734    1.3056   35.3197 C   0  0  0  0  0
   -9.6494    2.0637   34.5427 C   0  0  0  0  0
  -11.0271    1.9348   34.7185 C   0  0  0  0  0
  -11.5288    1.0480   35.6711 C   0  0  0  0  0
  -10.6527    0.2900   36.4480 C   0  0  0  0  0
   -9.2750    0.4188   36.2723 C   0  0  0  0  0
   -8.6156   -0.1519   36.8571 H   0  0  0  0  0
  -11.1859   -0.6504   37.4585 C   0  0  0  0  0
  -12.3607   -0.2813   38.1047 N   0  0  0  0  0
  -12.7187   -1.0900   39.0543 C   0  0  0  0  0
  -13.9202   -0.9520   39.7212 N   0  0  0  0  0
  -14.0583   -1.9996   40.4355 N   0  0  0  0  0
  -12.9754   -2.8109   40.2310 N   0  0  0  0  0
  -12.0448   -2.1933   39.4763 N   0  0  0  0  0
  -11.0388   -2.8526   38.6841 C   0  0  2  0  0
   -9.9180   -3.3687   39.5628 C   0  0  0  0  0
  -10.2140   -4.0206   40.7600 C   0  0  0  0  0
   -9.1822   -4.4953   41.5694 C   0  0  0  0  0
   -7.8540   -4.3180   41.1818 C   0  0  0  0  0
   -7.5578   -3.6662   39.9846 C   0  0  0  0  0
   -8.5898   -3.1915   39.1753 C   0  0  0  0  0
   -8.3668   -2.7008   38.2741 H   0  0  0  0  0
   -6.5580   -3.5330   39.6929 H   0  0  0  0  0
   -6.7505   -4.8256   42.0473 C   0  0  0  0  0
   -6.7128   -6.3504   42.1056 C   0  0  0  0  0
   -6.1956   -6.7200   41.2699 H   0  0  0  0  0
   -7.6937   -6.7251   42.1040 H   0  0  0  0  0
   -6.2233   -6.6551   42.9831 H   0  0  0  0  0
   -6.8794   -4.4664   43.0255 H   0  0  0  0  0
   -5.8288   -4.4923   41.6707 H   0  0  0  0  0
   -9.4051   -4.9861   42.4705 H   0  0  0  0  0
  -11.2137   -4.1539   41.0519 H   0  0  0  0  0
  -10.5546   -1.8340   37.6607 C   0  0  0  0  0
   -9.6994   -2.0751   37.1013 H   0  0  0  0  0
  -11.4702   -3.6626   38.1739 H   0  0  0  0  0
  -12.9570   -3.7387   40.6298 H   0  0  0  0  0
  -12.5659    0.9511   35.8033 H   0  0  0  0  0
  -11.6866    2.5053   34.1336 H   0  0  0  0  0
   -9.1446    3.0228   33.5134 C   0  0  0  0  0
   -9.7547    3.8773   33.5022 H   0  0  0  0  0
   -9.1657    2.5653   32.5685 H   0  0  0  0  0
   -8.1589    3.2995   33.7464 H   0  0  0  0  0
  1  2  2  0  0  0
  2  3  1  0  0  0
  2  5  1  0  0  0
  3  4  1  0  0  0
  5  6  2  0  0  0
  5 10  1  0  0  0
  6  7  1  0  0  0
  6 43  1  0  0  0
  7  8  2  0  0  0
  7 42  1  0  0  0
  8  9  1  0  0  0
  8 41  1  0  0  0
  9 10  2  0  0  0
  9 12  1  0  0  0
 10 11  1  0  0  0
 12 13  1  0  0  0
 12 37  2  0  0  0
 13 14  2  0  0  0
 14 15  1  0  0  0
 14 18  1  0  0  0
 15 16  2  0  0  0
 16 17  1  0  0  0
 17 18  1  0  0  0
 17 40  1  0  0  0
 18 19  1  0  0  0
 19 20  1  0  0  0
 19 37  1  0  0  0
 19 39  1  0  0  0
 20 21  1  0  0  0
 20 25  2  0  0  0
 21 22  2  0  0  0
 21 36  1  0  0  0
 22 23  1  0  0  0
 22 35  1  0  0  0
 23 24  2  0  0  0
 23 28  1  0  0  0
 24 25  1  0  0  0
 24 27  1  0  0  0
 25 26  1  0  0  0
 28 29  1  0  0  0
 28 33  1  0  0  0
 28 34  1  0  0  0
 29 30  1  0  0  0
 29 31  1  0  0  0
 29 32  1  0  0  0
 37 38  1  0  0  0
 43 44  1  0  0  0
 43 45  1  0  0  0
 43 46  1  0  0  0
M  END
> <CNNaffinity_variance>
0.15213487

> <CNN_VS>
6.380227

> <CNNscore>
0.89983094

> <rmsd>
1.0606241

> <minimizedAffinity>
-9.42674

> <Unaligned Pharm. Score (w/o EVS)>
35.74

> <Pharm. Score>
55.95

> <CNNaffinity>
7.090473

> <Unaligned Pharm. Score>
35.74

$$$$
ZINC02472318
XX    ILIB05142104133D

 57 61  0  0  1  0              1 V2000
  -11.8063   -2.5108   39.9510 O   0  0  0  0  0
  -11.3018   -1.8925   38.8484 C   0  0  0  0  0
  -11.3904   -0.5059   38.7257 C   0  0  0  0  0
  -10.8727    0.1287   37.5966 C   0  0  0  0  0
  -10.2666   -0.6231   36.5902 C   0  0  0  0  0
  -10.1782   -2.0097   36.7129 C   0  0  0  0  0
  -10.6958   -2.6445   37.8421 C   0  0  0  0  0
  -10.6293   -3.6883   37.9345 H   0  0  0  0  0
   -9.7219   -2.5757   35.9553 H   0  0  0  0  0
   -9.7043    0.0665   35.3638 C   0  0  1  0  0
  -10.1853    1.4410   35.2279 N   0  0  0  0  0
  -11.4545    1.8014   35.4821 N   0  0  0  0  0
  -11.4079    3.1028   35.1895 C   0  0  0  0  0
  -10.2070    3.5691   34.7317 N   0  0  0  0  0
   -9.4543    2.4896   34.7307 C   0  0  0  0  0
   -8.1744    2.3010   34.3373 N   0  0  0  0  0
   -7.6179    0.9525   34.2284 C   0  0  1  0  0
   -6.1029    0.9990   34.2339 C   0  0  0  0  0
   -5.4354    2.0577   33.6181 C   0  0  0  0  0
   -4.0413    2.1004   33.6231 C   0  0  0  0  0
   -3.3146    1.0842   34.2435 C   0  0  0  0  0
   -1.9542    1.1262   34.2470 O   0  0  0  0  0
   -1.2938    0.6802   35.4306 C   0  0  0  0  0
   -1.2461    1.4682   36.1229 H   0  0  0  0  0
   -0.3212    0.3653   35.1912 H   0  0  0  0  0
   -1.8282   -0.1212   35.8487 H   0  0  0  0  0
   -3.9821    0.0254   34.8593 C   0  0  0  0  0
   -5.3764   -0.0172   34.8546 C   0  0  0  0  0
   -5.8790   -0.8141   35.3181 H   0  0  0  0  0
   -3.4350   -0.7394   35.3265 H   0  0  0  0  0
   -3.5388    2.8975   33.1599 H   0  0  0  0  0
   -5.9824    2.8224   33.1507 H   0  0  0  0  0
   -8.1616    0.0559   35.3597 C   0  0  0  0  0
   -7.8187   -0.9254   35.2116 H   0  0  0  0  0
   -7.8066    0.4156   36.2801 H   0  0  0  0  0
   -7.9415    0.5117   33.3320 H   0  0  0  0  0
   -7.5920    3.0958   34.1153 H   0  0  0  0  0
  -12.4408    3.9775   35.3014 N   0  0  0  0  0
  -13.3402    3.6571   35.6308 H   0  0  0  0  0
  -12.3096    4.9482   35.0552 H   0  0  0  0  0
   -9.9895   -0.4892   34.5198 H   0  0  0  0  0
  -10.9394    1.1725   37.5044 H   0  0  0  0  0
  -11.8467    0.0601   39.4833 H   0  0  0  0  0
  -12.6366   -3.6506   39.7334 C   0  0  0  0  0
  -12.5338   -4.5648   40.9188 C   0  0  0  0  0
  -11.7623   -5.7244   40.8406 C   0  0  0  0  0
  -11.6666   -6.5741   41.9427 C   0  0  0  0  0
  -12.3423   -6.2643   43.1229 C   0  0  0  0  0
  -13.1139   -5.1048   43.2011 C   0  0  0  0  0
  -13.2096   -4.2551   42.0992 C   0  0  0  0  0
  -13.7902   -3.3822   42.1582 H   0  0  0  0  0
  -13.6226   -4.8718   44.0895 H   0  0  0  0  0
  -12.2702   -6.9038   43.9525 H   0  0  0  0  0
  -11.0860   -7.4469   41.8838 H   0  0  0  0  0
  -11.2537   -5.9576   39.9521 H   0  0  0  0  0
  -13.6322   -3.3402   39.6115 H   0  0  0  0  0
  -12.3190   -4.1551   38.8691 H   0  0  0  0  0
  1  2  1  0  0  0
  1 44  1  0  0  0
  2  3  1  0  0  0
  2  7  2  0  0  0
  3  4  2  0  0  0
  3 43  1  0  0  0
  4  5  1  0  0  0
  4 42  1  0  0  0
  5  6  2  0  0  0
  5 10  1  0  0  0
  6  7  1  0  0  0
  6  9  1  0  0  0
  7  8  1  0  0  0
 10 11  1  0  0  0
 10 33  1  0  0  0
 10 41  1  0  0  0
 11 12  1  0  0  0
 11 15  1  0  0  0
 12 13  2  0  0  0
 13 14  1  0  0  0
 13 38  1  0  0  0
 14 15  2  0  0  0
 15 16  1  0  0  0
 16 17  1  0  0  0
 16 37  1  0  0  0
 17 18  1  0  0  0
 17 33  1  0  0  0
 17 36  1  0  0  0
 18 19  1  0  0  0
 18 28  2  0  0  0
 19 20  2  0  0  0
 19 32  1  0  0  0
 20 21  1  0  0  0
 20 31  1  0  0  0
 21 22  1  0  0  0
 21 27  2  0  0  0
 22 23  1  0  0  0
 23 24  1  0  0  0
 23 25  1  0  0  0
 23 26  1  0  0  0
 27 28  1  0  0  0
 27 30  1  0  0  0
 28 29  1  0  0  0
 33 34  1  0  0  0
 33 35  1  0  0  0
 38 39  1  0  0  0
 38 40  1  0  0  0
 44 45  1  0  0  0
 44 56  1  0  0  0
 44 57  1  0  0  0
 45 46  1  0  0  0
 45 50  2  0  0  0
 46 47  2  0  0  0
 46 55  1  0  0  0
 47 48  1  0  0  0
 47 54  1  0  0  0
 48 49  2  0  0  0
 48 53  1  0  0  0
 49 50  1  0  0  0
 49 52  1  0  0  0
 50 51  1  0  0  0
M  END
> <CNNaffinity_variance>
0.102147914

> <CNN_VS>
6.3843946

> <CNNscore>
0.894566

> <rmsd>
0.93627924

> <minimizedAffinity>
-9.4668

> <Unaligned Pharm. Score (w/o EVS)>
36.55

> <Pharm. Score>
56.98

> <CNNaffinity>
7.1368628

> <Unaligned Pharm. Score>
36.55

$$$$
ZINC02472304
XX    ILIB05142104133D

 57 61  0  0  1  0              1 V2000
  -13.1207   -1.2182   39.7134 O   0  0  0  0  0
  -12.5464   -0.7448   38.5739 C   0  0  0  0  0
  -11.4031   -1.3592   38.0631 C   0  0  0  0  0
  -10.8144   -0.8754   36.8947 C   0  0  0  0  0
  -11.3689    0.2228   36.2374 C   0  0  0  0  0
  -12.5121    0.8371   36.7482 C   0  0  0  0  0
  -13.1010    0.3534   37.9166 C   0  0  0  0  0
  -13.9617    0.8159   38.3012 H   0  0  0  0  0
  -12.9295    1.6637   36.2533 H   0  0  0  0  0
  -10.7294    0.7480   34.9679 C   0  0  1  0  0
  -11.0528    2.1528   34.7213 N   0  0  0  0  0
  -12.2742    2.6715   34.9327 N   0  0  0  0  0
  -12.0811    3.9328   34.5416 C   0  0  0  0  0
  -10.8342    4.2251   34.0629 N   0  0  0  0  0
  -10.2073    3.0715   34.1535 C   0  0  0  0  0
   -8.9557    2.7113   33.7903 N   0  0  0  0  0
   -8.5538    1.3046   33.7916 C   0  0  1  0  0
   -7.0432    1.1818   33.8106 C   0  0  0  0  0
   -6.2819    1.7826   32.8081 C   0  0  0  0  0
   -4.8918    1.6687   32.8251 C   0  0  0  0  0
   -4.1486    2.2544   31.8468 O   0  0  0  0  0
   -4.8106    3.1979   31.0057 C   0  0  0  0  0
   -5.7086    3.5004   31.4580 H   0  0  0  0  0
   -5.0186    2.7535   30.0773 H   0  0  0  0  0
   -4.1917    4.0340   30.8627 H   0  0  0  0  0
   -4.2631    0.9541   33.8448 C   0  0  0  0  0
   -5.0245    0.3534   34.8474 C   0  0  0  0  0
   -6.4146    0.4672   34.8303 C   0  0  0  0  0
   -6.9878    0.0149   35.5849 H   0  0  0  0  0
   -4.5512   -0.1845   35.6150 H   0  0  0  0  0
   -3.2167    0.8684   33.8577 H   0  0  0  0  0
   -6.7552    2.3206   32.0405 H   0  0  0  0  0
   -9.1977    0.5650   34.9822 C   0  0  0  0  0
   -8.9666   -0.4570   34.9139 H   0  0  0  0  0
   -8.8071    0.9532   35.8762 H   0  0  0  0  0
   -8.9225    0.8345   32.9281 H   0  0  0  0  0
   -8.2873    3.4165   33.5143 H   0  0  0  0  0
  -13.0096    4.9234   34.5742 N   0  0  0  0  0
  -13.9401    4.7322   34.9171 H   0  0  0  0  0
  -12.7695    5.8512   34.2555 H   0  0  0  0  0
  -11.0730    0.1638   34.1660 H   0  0  0  0  0
   -9.9538   -1.3379   36.5101 H   0  0  0  0  0
  -10.9857   -2.1858   38.5581 H   0  0  0  0  0
  -13.0734   -2.6282   39.9272 C   0  0  0  0  0
  -12.1004   -2.9237   41.0304 C   0  0  0  0  0
  -12.2161   -2.2688   42.2566 C   0  0  0  0  0
  -11.3114   -2.5436   43.2822 C   0  0  0  0  0
  -10.2913   -3.4735   43.0817 C   0  0  0  0  0
  -10.1754   -4.1284   41.8556 C   0  0  0  0  0
  -11.0801   -3.8536   40.8300 C   0  0  0  0  0
  -10.9929   -4.3467   39.9071 H   0  0  0  0  0
   -9.4073   -4.8282   41.7046 H   0  0  0  0  0
   -9.6104   -3.6805   43.8538 H   0  0  0  0  0
  -11.3985   -2.0505   44.2051 H   0  0  0  0  0
  -12.9841   -1.5689   42.4076 H   0  0  0  0  0
  -14.0279   -2.9737   40.1954 H   0  0  0  0  0
  -12.7635   -3.1057   39.0449 H   0  0  0  0  0
  1  2  1  0  0  0
  1 44  1  0  0  0
  2  3  1  0  0  0
  2  7  2  0  0  0
  3  4  2  0  0  0
  3 43  1  0  0  0
  4  5  1  0  0  0
  4 42  1  0  0  0
  5  6  2  0  0  0
  5 10  1  0  0  0
  6  7  1  0  0  0
  6  9  1  0  0  0
  7  8  1  0  0  0
 10 11  1  0  0  0
 10 33  1  0  0  0
 10 41  1  0  0  0
 11 12  1  0  0  0
 11 15  1  0  0  0
 12 13  2  0  0  0
 13 14  1  0  0  0
 13 38  1  0  0  0
 14 15  2  0  0  0
 15 16  1  0  0  0
 16 17  1  0  0  0
 16 37  1  0  0  0
 17 18  1  0  0  0
 17 33  1  0  0  0
 17 36  1  0  0  0
 18 19  1  0  0  0
 18 28  2  0  0  0
 19 20  2  0  0  0
 19 32  1  0  0  0
 20 21  1  0  0  0
 20 26  1  0  0  0
 21 22  1  0  0  0
 22 23  1  0  0  0
 22 24  1  0  0  0
 22 25  1  0  0  0
 26 27  2  0  0  0
 26 31  1  0  0  0
 27 28  1  0  0  0
 27 30  1  0  0  0
 28 29  1  0  0  0
 33 34  1  0  0  0
 33 35  1  0  0  0
 38 39  1  0  0  0
 38 40  1  0  0  0
 44 45  1  0  0  0
 44 56  1  0  0  0
 44 57  1  0  0  0
 45 46  1  0  0  0
 45 50  2  0  0  0
 46 47  2  0  0  0
 46 55  1  0  0  0
 47 48  1  0  0  0
 47 54  1  0  0  0
 48 49  2  0  0  0
 48 53  1  0  0  0
 49 50  1  0  0  0
 49 52  1  0  0  0
 50 51  1  0  0  0
M  END
> <CNNaffinity_variance>
0.10861808

> <CNN_VS>
6.7159863

> <CNNscore>
0.9118947

> <rmsd>
0.9362791

> <minimizedAffinity>
-9.51223

> <Unaligned Pharm. Score (w/o EVS)>
46.29

> <Pharm. Score>
45.86

> <CNNaffinity>
7.3648705

> <Unaligned Pharm. Score>
46.29

$$$$
ZINC09561371
XX    ILIB05142104133D

 52 57  0  0  1  0              1 V2000
   -2.9252    0.2402   30.3790 O   0  0  0  0  0
   -3.5679    0.8596   31.4063 C   0  0  0  0  0
   -2.7644    1.7713   32.0519 C   0  0  0  0  0
   -1.5178    1.8366   31.5098 O   0  0  0  0  0
   -1.6270    0.8645   30.4500 C   0  0  0  0  0
   -0.8946    0.1310   30.6176 H   0  0  0  0  0
   -1.4265    1.3591   29.5458 H   0  0  0  0  0
   -3.2205    2.5101   33.1242 C   0  0  0  0  0
   -4.5378    2.3032   33.5403 C   0  0  0  0  0
   -5.3589    1.3718   32.8808 C   0  0  0  0  0
   -4.8723    0.6366   31.7971 C   0  0  0  0  0
   -5.4612   -0.0655   31.2845 H   0  0  0  0  0
   -6.7714    1.1667   33.3467 C   0  0  0  0  0
   -6.9758    1.6652   34.6734 N   0  0  0  0  0
   -8.0943    1.3032   35.3857 C   0  0  0  0  0
   -8.0802    0.2434   36.1620 N   0  0  0  0  0
   -9.2420   -0.1219   36.8952 C   0  0  0  0  0
  -10.4485    0.6075   36.8389 C   0  0  0  0  0
  -10.4362    1.7284   36.0073 N   0  0  0  0  0
   -9.3150    2.0696   35.3080 C   0  0  0  0  0
   -9.5419    3.1516   34.5996 N   0  0  0  0  0
  -10.8516    3.5292   34.8440 N   0  0  0  0  0
  -11.3719    2.6636   35.6905 C   0  0  0  0  0
  -12.7553    2.7335   36.1932 C   0  0  0  0  0
  -13.3687    2.1041   35.6187 H   0  0  0  0  0
  -12.7791    2.4248   37.1965 H   0  0  0  0  0
  -13.1038    3.7215   36.1226 H   0  0  0  0  0
  -11.5772    0.2332   37.5657 C   0  0  0  0  0
  -11.5062   -0.9005   38.3733 C   0  0  0  0  0
  -10.3238   -1.6411   38.4467 C   0  0  0  0  0
   -9.1988   -1.2544   37.7125 C   0  0  0  0  0
   -8.3174   -1.8212   37.7782 H   0  0  0  0  0
  -10.2759   -2.4945   39.0565 H   0  0  0  0  0
  -12.6676   -1.3174   39.1440 C   0  0  0  0  0
  -13.7925   -0.8764   38.8662 O   0  0  0  0  0
  -12.5688   -2.2771   40.2846 C   0  0  0  0  0
  -13.4856   -2.2101   41.3337 C   0  0  0  0  0
  -13.3936   -3.1064   42.3986 C   0  0  0  0  0
  -12.3851   -4.0697   42.4143 C   0  0  0  0  0
  -11.4682   -4.1367   41.3650 C   0  0  0  0  0
  -11.5602   -3.2405   40.3003 C   0  0  0  0  0
  -10.8701   -3.2910   39.5105 H   0  0  0  0  0
  -10.7089   -4.8618   41.3768 H   0  0  0  0  0
  -12.3160   -4.7444   43.2158 H   0  0  0  0  0
  -14.0836   -3.0559   43.1884 H   0  0  0  0  0
  -14.2449   -1.4849   41.3219 H   0  0  0  0  0
  -12.4575    0.8017   37.4982 H   0  0  0  0  0
   -6.2935    2.2854   35.0855 H   0  0  0  0  0
   -6.9782    0.1375   33.3237 H   0  0  0  0  0
   -7.4119    1.6673   32.6821 H   0  0  0  0  0
   -4.9133    2.8509   34.3537 H   0  0  0  0  0
   -2.5834    3.1982   33.5966 H   0  0  0  0  0
  1  2  1  0  0  0
  1  5  1  0  0  0
  2  3  2  0  0  0
  2 11  1  0  0  0
  3  4  1  0  0  0
  3  8  1  0  0  0
  4  5  1  0  0  0
  5  6  1  0  0  0
  5  7  1  0  0  0
  8  9  2  0  0  0
  8 52  1  0  0  0
  9 10  1  0  0  0
  9 51  1  0  0  0
 10 11  2  0  0  0
 10 13  1  0  0  0
 11 12  1  0  0  0
 13 14  1  0  0  0
 13 49  1  0  0  0
 13 50  1  0  0  0
 14 15  1  0  0  0
 14 48  1  0  0  0
 15 16  2  0  0  0
 15 20  1  0  0  0
 16 17  1  0  0  0
 17 18  2  0  0  0
 17 31  1  0  0  0
 18 19  1  0  0  0
 18 28  1  0  0  0
 19 20  1  0  0  0
 19 23  1  0  0  0
 20 21  2  0  0  0
 21 22  1  0  0  0
 22 23  2  0  0  0
 23 24  1  0  0  0
 24 25  1  0  0  0
 24 26  1  0  0  0
 24 27  1  0  0  0
 28 29  2  0  0  0
 28 47  1  0  0  0
 29 30  1  0  0  0
 29 34  1  0  0  0
 30 31  2  0  0  0
 30 33  1  0  0  0
 31 32  1  0  0  0
 34 35  2  0  0  0
 34 36  1  0  0  0
 36 37  1  0  0  0
 36 41  2  0  0  0
 37 38  2  0  0  0
 37 46  1  0  0  0
 38 39  1  0  0  0
 38 45  1  0  0  0
 39 40  2  0  0  0
 39 44  1  0  0  0
 40 41  1  0  0  0
 40 43  1  0  0  0
 41 42  1  0  0  0
M  END
> <CNNaffinity_variance>
0.07484428

> <CNN_VS>
6.3879347

> <CNNscore>
0.8949021

> <rmsd>
1.0702447

> <minimizedAffinity>
-9.51949

> <Unaligned Pharm. Score (w/o EVS)>
65.55

> <Pharm. Score>
66.12

> <CNNaffinity>
7.138138

> <Unaligned Pharm. Score>
65.55

$$$$
ZINC01084111
XX    ILIB05142104133D

 41 43  0  0  1  0              1 V2000
  -13.8217    5.5595   35.5503 S   0  0  0  0  0
  -12.5611    4.5579   35.0793 C   0  0  0  0  0
  -11.9894    3.6845   35.9802 N   0  0  0  0  0
  -11.1137    2.6024   35.8012 C   0  0  0  0  0
  -11.3590    1.5021   36.5379 N   0  0  0  0  0
  -10.4982    0.4819   36.3413 C   0  0  0  0  0
  -10.7581   -0.6990   37.1293 C   0  0  0  0  0
  -11.6410   -0.6591   38.2087 C   0  0  0  0  0
  -12.2848    0.4924   38.5537 O   0  0  0  0  0
  -13.0379    0.6808   37.8767 H   0  0  0  0  0
  -11.8779   -1.8110   38.9588 C   0  0  0  0  0
  -11.2319   -3.0026   38.6298 C   0  0  0  0  0
  -10.3490   -3.0425   37.5505 C   0  0  0  0  0
  -10.1121   -1.8907   36.8004 C   0  0  0  0  0
   -9.4475   -1.9207   35.9881 H   0  0  0  0  0
   -9.8627   -3.9396   37.3028 H   0  0  0  0  0
  -11.4100   -3.8697   39.1945 H   0  0  0  0  0
  -12.5426   -1.7810   39.7711 H   0  0  0  0  0
   -9.4378    0.5326   35.4596 C   0  0  0  0  0
   -9.2948    1.7163   34.7651 C   0  0  0  0  0
  -10.1177    2.7756   34.9116 N   0  0  0  0  0
   -8.2245    1.8987   33.8093 C   0  0  0  0  0
   -8.2446    2.9889   32.9394 C   0  0  0  0  0
   -7.2124    3.1646   32.0177 C   0  0  0  0  0
   -6.1604    2.2501   31.9657 C   0  0  0  0  0
   -5.1534    2.4215   31.0665 O   0  0  0  0  0
   -3.8210    2.4285   31.5768 C   0  0  0  0  0
   -3.5876    3.3882   31.9331 H   0  0  0  0  0
   -3.7431    1.7353   32.3616 H   0  0  0  0  0
   -3.1516    2.1670   30.8113 H   0  0  0  0  0
   -6.1405    1.1599   32.8357 C   0  0  0  0  0
   -7.1726    0.9842   33.7575 C   0  0  0  0  0
   -7.1576    0.1635   34.4123 H   0  0  0  0  0
   -5.3486    0.4715   32.7967 H   0  0  0  0  0
   -7.2274    3.9853   31.3630 H   0  0  0  0  0
   -9.0365    3.6772   32.9784 H   0  0  0  0  0
   -8.8036   -0.2974   35.3530 H   0  0  0  0  0
  -12.3040    3.9315   36.9076 H   0  0  0  0  0
  -12.0576    4.6459   33.8173 N   0  0  0  0  0
  -12.4431    5.3140   33.1653 H   0  0  0  0  0
  -11.2987    4.0432   33.5332 H   0  0  0  0  0
  1  2  2  0  0  0
  2  3  1  0  0  0
  2 39  1  0  0  0
  3  4  1  0  0  0
  3 38  1  0  0  0
  4  5  2  0  0  0
  4 21  1  0  0  0
  5  6  1  0  0  0
  6  7  1  0  0  0
  6 19  2  0  0  0
  7  8  2  0  0  0
  7 14  1  0  0  0
  8  9  1  0  0  0
  8 11  1  0  0  0
  9 10  1  0  0  0
 11 12  2  0  0  0
 11 18  1  0  0  0
 12 13  1  0  0  0
 12 17  1  0  0  0
 13 14  2  0  0  0
 13 16  1  0  0  0
 14 15  1  0  0  0
 19 20  1  0  0  0
 19 37  1  0  0  0
 20 21  2  0  0  0
 20 22  1  0  0  0
 22 23  1  0  0  0
 22 32  2  0  0  0
 23 24  2  0  0  0
 23 36  1  0  0  0
 24 25  1  0  0  0
 24 35  1  0  0  0
 25 26  1  0  0  0
 25 31  2  0  0  0
 26 27  1  0  0  0
 27 28  1  0  0  0
 27 29  1  0  0  0
 27 30  1  0  0  0
 31 32  1  0  0  0
 31 34  1  0  0  0
 32 33  1  0  0  0
 39 40  1  0  0  0
 39 41  1  0  0  0
M  END
> <CNNaffinity_variance>
0.059505872

> <CNN_VS>
6.730147

> <CNNscore>
0.95875525

> <rmsd>
0.99914956

> <minimizedAffinity>
-9.54224

> <Unaligned Pharm. Score (w/o EVS)>
35.09

> <Pharm. Score>
45.81

> <CNNaffinity>
7.0196714

> <Unaligned Pharm. Score>
35.09

$$$$
ZINC02638281
XX    ILIB05142104133D

 44 47  0  0  1  0              1 V2000
   -2.9562    2.3811   40.1451 Cl  0  0  0  0  0
   -4.1064    1.9356   38.9453 C   0  0  0  0  0
   -5.2560    1.2335   39.3076 C   0  0  0  0  0
   -6.1885    0.8726   38.3350 C   0  0  0  0  0
   -5.9712    1.2135   37.0000 C   0  0  0  0  0
   -4.8216    1.9155   36.6376 C   0  0  0  0  0
   -3.8893    2.2766   37.6101 C   0  0  0  0  0
   -3.0240    2.8050   37.3373 H   0  0  0  0  0
   -4.6580    2.1721   35.6326 H   0  0  0  0  0
   -6.9792    0.8232   35.9484 C   0  0  0  0  0
   -6.5469    0.0802   35.0367 O   0  0  0  0  0
   -8.3399    1.2582   35.9682 C   0  0  0  0  0
   -9.4615    0.3953   36.9259 S   0  0  0  0  0
  -10.7335    1.4503   36.5099 C   0  0  0  0  0
  -12.0477    1.3065   36.9708 N   0  0  0  0  0
  -13.0416    2.1429   36.4093 C   0  0  0  0  0
  -14.2345    2.1231   36.7287 O   0  0  0  0  0
  -12.5911    3.0831   35.4627 N   0  0  0  0  0
  -11.2896    3.3117   35.0192 C   0  0  0  0  0
  -10.9835    4.1940   34.2234 O   0  0  0  0  0
  -10.3309    2.3908   35.5851 C   0  0  0  0  0
   -8.9376    2.2988   35.2940 C   0  0  0  0  0
   -8.2703    3.1160   34.4428 N   0  0  0  0  0
   -8.7596    3.8651   33.9742 H   0  0  0  0  0
   -7.2840    2.9758   34.2773 H   0  0  0  0  0
  -13.3541    3.6321   35.0935 H   0  0  0  0  0
  -12.3941    0.3539   37.9784 C   0  0  0  0  0
  -11.8199   -0.9171   37.9631 C   0  0  0  0  0
  -12.1573   -1.8470   38.9463 C   0  0  0  0  0
  -13.0696   -1.5060   39.9450 C   0  0  0  0  0
  -13.6440   -0.2348   39.9604 C   0  0  0  0  0
  -13.3063    0.6950   38.9771 C   0  0  0  0  0
  -13.7387    1.6518   38.9887 H   0  0  0  0  0
  -14.3305    0.0220   40.7122 H   0  0  0  0  0
  -13.4224   -2.4763   40.9691 C   0  0  0  0  0
  -12.7708   -3.4875   41.2388 O   0  0  0  0  0
  -14.6722   -2.2247   41.7617 C   0  0  0  0  0
  -14.5332   -1.3856   42.3773 H   0  0  0  0  0
  -14.8844   -3.0638   42.3563 H   0  0  0  0  0
  -15.4731   -2.0489   41.1059 H   0  0  0  0  0
  -11.7248   -2.8037   38.9348 H   0  0  0  0  0
  -11.1334   -1.1740   37.2113 H   0  0  0  0  0
   -7.0539    0.3442   38.6078 H   0  0  0  0  0
   -5.4194    0.9767   40.3125 H   0  0  0  0  0
  1  2  1  0  0  0
  2  3  1  0  0  0
  2  7  2  0  0  0
  3  4  2  0  0  0
  3 44  1  0  0  0
  4  5  1  0  0  0
  4 43  1  0  0  0
  5  6  2  0  0  0
  5 10  1  0  0  0
  6  7  1  0  0  0
  6  9  1  0  0  0
  7  8  1  0  0  0
 10 11  2  0  0  0
 10 12  1  0  0  0
 12 13  1  0  0  0
 12 22  2  0  0  0
 13 14  1  0  0  0
 14 15  1  0  0  0
 14 21  2  0  0  0
 15 16  1  0  0  0
 15 27  1  0  0  0
 16 17  2  0  0  0
 16 18  1  0  0  0
 18 19  1  0  0  0
 18 26  1  0  0  0
 19 20  2  0  0  0
 19 21  1  0  0  0
 21 22  1  0  0  0
 22 23  1  0  0  0
 23 24  1  0  0  0
 23 25  1  0  0  0
 27 28  1  0  0  0
 27 32  2  0  0  0
 28 29  2  0  0  0
 28 42  1  0  0  0
 29 30  1  0  0  0
 29 41  1  0  0  0
 30 31  2  0  0  0
 30 35  1  0  0  0
 31 32  1  0  0  0
 31 34  1  0  0  0
 32 33  1  0  0  0
 35 36  2  0  0  0
 35 37  1  0  0  0
 37 38  1  0  0  0
 37 39  1  0  0  0
 37 40  1  0  0  0
M  END
> <CNNaffinity_variance>
0.14179042

> <CNN_VS>
7.002028

> <CNNscore>
0.9616498

> <rmsd>
0.9551547

> <minimizedAffinity>
-9.54872

> <Unaligned Pharm. Score (w/o EVS)>
45.61

> <Pharm. Score>
76.25

> <CNNaffinity>
7.281266

> <Unaligned Pharm. Score>
45.61

$$$$
ZINC01130991
XX    ILIB05142104133D

 53 57  0  0  1  0              1 V2000
   -5.1785    2.0478   33.2216 Cl  0  0  0  0  0
   -4.8438    1.2424   34.7111 C   0  0  0  0  0
   -5.8669    0.6937   35.4844 C   0  0  0  0  0
   -5.5651    0.0480   36.6834 C   0  0  0  0  0
   -4.2403   -0.0486   37.1093 C   0  0  0  0  0
   -3.2173    0.5000   36.3360 C   0  0  0  0  0
   -3.5191    1.1457   35.1370 C   0  0  0  0  0
   -2.7490    1.5589   34.5550 H   0  0  0  0  0
   -2.2201    0.4270   36.6565 H   0  0  0  0  0
   -4.0131   -0.5344   38.0120 H   0  0  0  0  0
   -6.3352   -0.3652   37.2654 H   0  0  0  0  0
   -7.3188    0.7770   35.0576 C   0  0  2  0  0
   -7.7137    2.1697   34.8462 N   0  0  0  0  0
   -9.0189    2.5228   34.8379 C   0  0  0  0  0
   -9.9796    1.6253   35.2283 N   0  0  0  0  0
  -11.2162    2.1267   35.0703 N   0  0  0  0  0
  -10.9331    3.3621   34.6521 C   0  0  0  0  0
   -9.6057    3.6514   34.4999 N   0  0  0  0  0
  -11.8425    4.3291   34.3648 N   0  0  0  0  0
  -12.8298    4.1390   34.4626 H   0  0  0  0  0
  -11.5318    5.2383   34.0535 H   0  0  0  0  0
   -9.7255    0.2496   35.6546 C   0  0  2  0  0
  -10.6760   -0.2017   36.7449 C   0  0  0  0  0
  -11.9361    0.3858   36.8587 C   0  0  0  0  0
  -12.8111   -0.0293   37.8624 C   0  0  0  0  0
  -12.4261   -1.0321   38.7525 C   0  0  0  0  0
  -13.2804   -1.4358   39.7321 O   0  0  0  0  0
  -13.2921   -2.8265   40.0508 C   0  0  0  0  0
  -12.6290   -3.0295   41.3815 C   0  0  0  0  0
  -11.6465   -4.0087   41.5292 C   0  0  0  0  0
  -11.0301   -4.1971   42.7661 C   0  0  0  0  0
  -11.3960   -3.4067   43.8555 C   0  0  0  0  0
  -12.3786   -2.4275   43.7079 C   0  0  0  0  0
  -12.9950   -2.2389   42.4709 C   0  0  0  0  0
  -13.7346   -1.5019   42.3598 H   0  0  0  0  0
  -12.6541   -1.8324   44.5279 H   0  0  0  0  0
  -10.9319   -3.5487   44.7866 H   0  0  0  0  0
  -10.2904   -4.9340   42.8773 H   0  0  0  0  0
  -11.3710   -4.6040   40.7092 H   0  0  0  0  0
  -12.7711   -3.3594   39.3111 H   0  0  0  0  0
  -14.2843   -3.1673   40.0944 H   0  0  0  0  0
  -11.1662   -1.6196   38.6388 C   0  0  0  0  0
  -10.2911   -1.2044   37.6349 C   0  0  0  0  0
   -9.3426   -1.6466   37.5493 H   0  0  0  0  0
  -10.8765   -2.3743   39.3088 H   0  0  0  0  0
  -13.7596    0.4129   37.9481 H   0  0  0  0  0
  -12.2259    1.1405   36.1887 H   0  0  0  0  0
   -8.2514    0.1064   36.0868 C   0  0  0  0  0
   -8.1144    0.5655   37.0210 H   0  0  0  0  0
   -8.0048   -0.9118   36.1576 H   0  0  0  0  0
   -9.8405   -0.3975   34.8358 H   0  0  0  0  0
   -7.0000    2.8703   34.7055 H   0  0  0  0  0
   -7.4424    0.2387   34.1645 H   0  0  0  0  0
  1  2  1  0  0  0
  2  3  2  0  0  0
  2  7  1  0  0  0
  3  4  1  0  0  0
  3 12  1  0  0  0
  4  5  2  0  0  0
  4 11  1  0  0  0
  5  6  1  0  0  0
  5 10  1  0  0  0
  6  7  2  0  0  0
  6  9  1  0  0  0
  7  8  1  0  0  0
 12 13  1  0  0  0
 12 48  1  0  0  0
 12 53  1  0  0  0
 13 14  1  0  0  0
 13 52  1  0  0  0
 14 15  1  0  0  0
 14 18  2  0  0  0
 15 16  1  0  0  0
 15 22  1  0  0  0
 16 17  2  0  0  0
 17 18  1  0  0  0
 17 19  1  0  0  0
 19 20  1  0  0  0
 19 21  1  0  0  0
 22 23  1  0  0  0
 22 48  1  0  0  0
 22 51  1  0  0  0
 23 24  1  0  0  0
 23 43  2  0  0  0
 24 25  2  0  0  0
 24 47  1  0  0  0
 25 26  1  0  0  0
 25 46  1  0  0  0
 26 27  1  0  0  0
 26 42  2  0  0  0
 27 28  1  0  0  0
 28 29  1  0  0  0
 28 40  1  0  0  0
 28 41  1  0  0  0
 29 30  1  0  0  0
 29 34  2  0  0  0
 30 31  2  0  0  0
 30 39  1  0  0  0
 31 32  1  0  0  0
 31 38  1  0  0  0
 32 33  2  0  0  0
 32 37  1  0  0  0
 33 34  1  0  0  0
 33 36  1  0  0  0
 34 35  1  0  0  0
 42 43  1  0  0  0
 42 45  1  0  0  0
 43 44  1  0  0  0
 48 49  1  0  0  0
 48 50  1  0  0  0
M  END
> <CNNaffinity_variance>
0.11696929

> <CNN_VS>
6.61423

> <CNNscore>
0.89338624

> <rmsd>
0.93716925

> <minimizedAffinity>
-9.63541

> <Unaligned Pharm. Score (w/o EVS)>
46.27

> <Pharm. Score>
36.04

> <CNNaffinity>
7.4035506

> <Unaligned Pharm. Score>
46.27

$$$$
ZINC02472295
XX    ILIB05142104133D

 53 57  0  0  1  0              1 V2000
   -1.9760    1.1263   34.2508 F   0  0  0  0  0
   -3.3149    1.0848   34.2454 C   0  0  0  0  0
   -3.9823    0.0224   34.8548 C   0  0  0  0  0
   -5.3765   -0.0207   34.8489 C   0  0  0  0  0
   -6.1033    0.9984   34.2333 C   0  0  0  0  0
   -5.4358    2.0607   33.6238 C   0  0  0  0  0
   -4.0416    2.1041   33.6298 C   0  0  0  0  0
   -3.5391    2.9038   33.1710 H   0  0  0  0  0
   -5.9828    2.8279   33.1603 H   0  0  0  0  0
   -7.6182    0.9522   34.2280 C   0  0  2  0  0
   -8.1745    2.3009   34.3369 N   0  0  0  0  0
   -9.4542    2.4894   34.7304 C   0  0  0  0  0
  -10.1853    1.4410   35.2278 N   0  0  0  0  0
  -11.4545    1.8015   35.4821 N   0  0  0  0  0
  -11.4077    3.1029   35.1894 C   0  0  0  0  0
  -10.2070    3.5690   34.7316 N   0  0  0  0  0
  -12.4407    3.9776   35.3014 N   0  0  0  0  0
  -13.3402    3.6575   35.6310 H   0  0  0  0  0
  -12.3093    4.9483   35.0552 H   0  0  0  0  0
   -9.7045    0.0665   35.3637 C   0  0  2  0  0
  -10.2668   -0.6231   36.5900 C   0  0  0  0  0
  -10.8429    0.1317   37.6119 C   0  0  0  0  0
  -11.3604   -0.5031   38.7410 C   0  0  0  0  0
  -11.3018   -1.8924   38.8486 C   0  0  0  0  0
  -11.8061   -2.5109   39.9511 O   0  0  0  0  0
  -12.6236   -3.6600   39.7339 C   0  0  0  0  0
  -12.4987   -4.5796   40.9129 C   0  0  0  0  0
  -11.7305   -5.7399   40.8141 C   0  0  0  0  0
  -11.6142   -6.5947   41.9102 C   0  0  0  0  0
  -12.2661   -6.2895   43.1050 C   0  0  0  0  0
  -13.0344   -5.1295   43.2037 C   0  0  0  0  0
  -13.1507   -4.2746   42.1077 C   0  0  0  0  0
  -13.7290   -3.4014   42.1822 H   0  0  0  0  0
  -13.5252   -4.8999   44.1030 H   0  0  0  0  0
  -12.1784   -6.9330   43.9300 H   0  0  0  0  0
  -11.0359   -7.4679   41.8358 H   0  0  0  0  0
  -11.2399   -5.9697   39.9147 H   0  0  0  0  0
  -12.3072   -4.1553   38.8639 H   0  0  0  0  0
  -13.6242   -3.3616   39.6226 H   0  0  0  0  0
  -10.7257   -2.6474   37.8266 C   0  0  0  0  0
  -10.2082   -2.0126   36.6974 C   0  0  0  0  0
   -9.7746   -2.5808   35.9283 H   0  0  0  0  0
  -10.6818   -3.6934   37.9074 H   0  0  0  0  0
  -11.7942    0.0651   39.5101 H   0  0  0  0  0
  -10.8870    1.1776   37.5312 H   0  0  0  0  0
   -8.1619    0.0558   35.3594 C   0  0  0  0  0
   -7.8068    0.4155   36.2798 H   0  0  0  0  0
   -7.8190   -0.9256   35.2114 H   0  0  0  0  0
   -9.9899   -0.4892   34.5197 H   0  0  0  0  0
   -7.5922    3.0956   34.1148 H   0  0  0  0  0
   -7.9420    0.5114   33.3317 H   0  0  0  0  0
   -5.8789   -0.8204   35.3078 H   0  0  0  0  0
   -3.4352   -0.7448   35.3181 H   0  0  0  0  0
  1  2  1  0  0  0
  2  3  1  0  0  0
  2  7  2  0  0  0
  3  4  2  0  0  0
  3 53  1  0  0  0
  4  5  1  0  0  0
  4 52  1  0  0  0
  5  6  2  0  0  0
  5 10  1  0  0  0
  6  7  1  0  0  0
  6  9  1  0  0  0
  7  8  1  0  0  0
 10 11  1  0  0  0
 10 46  1  0  0  0
 10 51  1  0  0  0
 11 12  1  0  0  0
 11 50  1  0  0  0
 12 13  1  0  0  0
 12 16  2  0  0  0
 13 14  1  0  0  0
 13 20  1  0  0  0
 14 15  2  0  0  0
 15 16  1  0  0  0
 15 17  1  0  0  0
 17 18  1  0  0  0
 17 19  1  0  0  0
 20 21  1  0  0  0
 20 46  1  0  0  0
 20 49  1  0  0  0
 21 22  1  0  0  0
 21 41  2  0  0  0
 22 23  2  0  0  0
 22 45  1  0  0  0
 23 24  1  0  0  0
 23 44  1  0  0  0
 24 25  1  0  0  0
 24 40  2  0  0  0
 25 26  1  0  0  0
 26 27  1  0  0  0
 26 38  1  0  0  0
 26 39  1  0  0  0
 27 28  1  0  0  0
 27 32  2  0  0  0
 28 29  2  0  0  0
 28 37  1  0  0  0
 29 30  1  0  0  0
 29 36  1  0  0  0
 30 31  2  0  0  0
 30 35  1  0  0  0
 31 32  1  0  0  0
 31 34  1  0  0  0
 32 33  1  0  0  0
 40 41  1  0  0  0
 40 43  1  0  0  0
 41 42  1  0  0  0
 46 47  1  0  0  0
 46 48  1  0  0  0
M  END
> <CNNaffinity_variance>
0.12536687

> <CNN_VS>
6.157842

> <CNNscore>
0.8739082

> <rmsd>
0.93646747

> <minimizedAffinity>
-9.6607

> <Unaligned Pharm. Score (w/o EVS)>
36.59

> <Pharm. Score>
56.98

> <CNNaffinity>
7.0463257

> <Unaligned Pharm. Score>
36.59

$$$$
ZINC03642489
XX    ILIB05142104133D

 53 57  0  0  1  0              1 V2000
   -1.9351    0.4968   36.0747 Br  0  0  0  0  0
   -3.8076    0.4609   35.8238 C   0  0  0  0  0
   -4.5659   -0.5697   36.3793 C   0  0  0  0  0
   -5.9482   -0.5959   36.1949 C   0  0  0  0  0
   -6.5723    0.4086   35.4550 C   0  0  0  0  0
   -5.8142    1.4391   34.8997 C   0  0  0  0  0
   -4.4316    1.4654   35.0840 C   0  0  0  0  0
   -3.8608    2.2411   34.6658 H   0  0  0  0  0
   -6.2841    2.1953   34.3429 H   0  0  0  0  0
   -8.0745    0.3801   35.2553 C   0  0  2  0  0
   -8.6198    1.7376   35.2582 N   0  0  0  0  0
   -9.9365    1.9516   35.4785 C   0  0  0  0  0
  -10.7414    0.9254   35.9030 N   0  0  0  0  0
  -12.0272    1.3075   35.9825 N   0  0  0  0  0
  -11.9234    2.5999   35.6661 C   0  0  0  0  0
  -10.6668    3.0396   35.3557 N   0  0  0  0  0
  -12.9488    3.4895   35.6221 N   0  0  0  0  0
  -12.7722    4.4517   35.3710 H   0  0  0  0  0
  -13.8880    3.1888   35.8407 H   0  0  0  0  0
  -10.3028   -0.4507   36.1338 C   0  0  2  0  0
  -11.0286   -1.1008   37.2941 C   0  0  0  0  0
  -11.7309   -0.3135   38.2066 C   0  0  0  0  0
  -12.3990   -0.9119   39.2749 C   0  0  0  0  0
  -12.3647   -2.2975   39.4308 C   0  0  0  0  0
  -13.0162   -2.8804   40.4741 O   0  0  0  0  0
  -13.8372   -4.0091   40.1778 C   0  0  0  0  0
  -13.9169   -4.8885   41.3909 C   0  0  0  0  0
  -14.7233   -4.5199   42.4678 C   0  0  0  0  0
  -14.7976   -5.3378   43.5954 C   0  0  0  0  0
  -14.0656   -6.5238   43.6462 C   0  0  0  0  0
  -13.2592   -6.8923   42.5694 C   0  0  0  0  0
  -13.1848   -6.0748   41.4417 C   0  0  0  0  0
  -12.5778   -6.3522   40.6310 H   0  0  0  0  0
  -12.7081   -7.7853   42.6078 H   0  0  0  0  0
  -14.1216   -7.1394   44.4950 H   0  0  0  0  0
  -15.4046   -5.0604   44.4060 H   0  0  0  0  0
  -15.2742   -3.6269   42.4297 H   0  0  0  0  0
  -13.4187   -4.5461   39.3784 H   0  0  0  0  0
  -14.7996   -3.6822   39.9140 H   0  0  0  0  0
  -11.6624   -3.0850   38.5184 C   0  0  0  0  0
  -10.9944   -2.4865   37.4500 C   0  0  0  0  0
  -10.4658   -3.0792   36.7631 H   0  0  0  0  0
  -11.6366   -4.1281   38.6358 H   0  0  0  0  0
  -12.9278   -0.3192   39.9616 H   0  0  0  0  0
  -11.7567    0.7296   38.0893 H   0  0  0  0  0
   -8.7727   -0.4796   36.3289 C   0  0  0  0  0
   -8.4285   -1.4685   36.2506 H   0  0  0  0  0
   -8.5336   -0.1000   37.2782 H   0  0  0  0  0
  -10.4854   -1.0252   35.2741 H   0  0  0  0  0
   -8.0019    2.5192   35.0934 H   0  0  0  0  0
   -8.2868   -0.0805   34.3359 H   0  0  0  0  0
   -6.5190   -1.3717   36.6130 H   0  0  0  0  0
   -4.0960   -1.3257   36.9363 H   0  0  0  0  0
  1  2  1  0  0  0
  2  3  1  0  0  0
  2  7  2  0  0  0
  3  4  2  0  0  0
  3 53  1  0  0  0
  4  5  1  0  0  0
  4 52  1  0  0  0
  5  6  2  0  0  0
  5 10  1  0  0  0
  6  7  1  0  0  0
  6  9  1  0  0  0
  7  8  1  0  0  0
 10 11  1  0  0  0
 10 46  1  0  0  0
 10 51  1  0  0  0
 11 12  1  0  0  0
 11 50  1  0  0  0
 12 13  1  0  0  0
 12 16  2  0  0  0
 13 14  1  0  0  0
 13 20  1  0  0  0
 14 15  2  0  0  0
 15 16  1  0  0  0
 15 17  1  0  0  0
 17 18  1  0  0  0
 17 19  1  0  0  0
 20 21  1  0  0  0
 20 46  1  0  0  0
 20 49  1  0  0  0
 21 22  1  0  0  0
 21 41  2  0  0  0
 22 23  2  0  0  0
 22 45  1  0  0  0
 23 24  1  0  0  0
 23 44  1  0  0  0
 24 25  1  0  0  0
 24 40  2  0  0  0
 25 26  1  0  0  0
 26 27  1  0  0  0
 26 38  1  0  0  0
 26 39  1  0  0  0
 27 28  1  0  0  0
 27 32  2  0  0  0
 28 29  2  0  0  0
 28 37  1  0  0  0
 29 30  1  0  0  0
 29 36  1  0  0  0
 30 31  2  0  0  0
 30 35  1  0  0  0
 31 32  1  0  0  0
 31 34  1  0  0  0
 32 33  1  0  0  0
 40 41  1  0  0  0
 40 43  1  0  0  0
 41 42  1  0  0  0
 46 47  1  0  0  0
 46 48  1  0  0  0
M  END
> <CNNaffinity_variance>
0.11704178

> <CNN_VS>
6.20669

> <CNNscore>
0.87321115

> <rmsd>
0.93638563

> <minimizedAffinity>
-9.69842

> <Unaligned Pharm. Score (w/o EVS)>
36.58

> <Pharm. Score>
46.31

> <CNNaffinity>
7.107891

> <Unaligned Pharm. Score>
36.58

$$$$
ZINC02472298
XX    ILIB05142104133D

 56 60  0  0  1  0              1 V2000
  -13.0162   -2.8804   40.4741 O   0  0  0  0  0
  -12.3647   -2.2975   39.4308 C   0  0  0  0  0
  -12.4031   -0.9122   39.2721 C   0  0  0  0  0
  -11.7350   -0.3140   38.2039 C   0  0  0  0  0
  -11.0286   -1.1007   37.2941 C   0  0  0  0  0
  -10.9903   -2.4860   37.4528 C   0  0  0  0  0
  -11.6584   -3.0845   38.5212 C   0  0  0  0  0
  -11.6298   -4.1273   38.6406 H   0  0  0  0  0
  -10.4586   -3.0784   36.7681 H   0  0  0  0  0
  -10.3027   -0.4506   36.1339 C   0  0  1  0  0
  -10.7414    0.9253   35.9031 N   0  0  0  0  0
  -12.0271    1.3075   35.9824 N   0  0  0  0  0
  -11.9234    2.6000   35.6661 C   0  0  0  0  0
  -10.6668    3.0396   35.3556 N   0  0  0  0  0
   -9.9366    1.9517   35.4784 C   0  0  0  0  0
   -8.6198    1.7376   35.2582 N   0  0  0  0  0
   -8.0744    0.3802   35.2554 C   0  0  1  0  0
   -6.5723    0.4087   35.4551 C   0  0  0  0  0
   -5.9485   -0.5941   36.1974 C   0  0  0  0  0
   -4.5662   -0.5677   36.3819 C   0  0  0  0  0
   -3.8076    0.4615   35.8242 C   0  0  0  0  0
   -4.4315    1.4643   35.0820 C   0  0  0  0  0
   -5.8138    1.4378   34.8974 C   0  0  0  0  0
   -6.2834    2.1927   34.3387 H   0  0  0  0  0
   -3.8605    2.2391   34.6622 H   0  0  0  0  0
   -2.3297    0.4898   36.0214 C   0  0  0  0  0
   -2.0275    1.4657   36.2637 H   0  0  0  0  0
   -1.8527    0.1851   35.1370 H   0  0  0  0  0
   -2.0682   -0.1616   36.8023 H   0  0  0  0  0
   -4.0966   -1.3226   36.9406 H   0  0  0  0  0
   -6.5195   -1.3688   36.6172 H   0  0  0  0  0
   -8.7727   -0.4795   36.3290 C   0  0  0  0  0
   -8.5337   -0.0997   37.2783 H   0  0  0  0  0
   -8.4285   -1.4684   36.2508 H   0  0  0  0  0
   -8.2867   -0.0804   34.3359 H   0  0  0  0  0
   -8.0017    2.5193   35.0935 H   0  0  0  0  0
  -12.9488    3.4895   35.6222 N   0  0  0  0  0
  -13.8879    3.1887   35.8408 H   0  0  0  0  0
  -12.7724    4.4516   35.3710 H   0  0  0  0  0
  -10.4854   -1.0251   35.2741 H   0  0  0  0  0
  -11.7639    0.7288   38.0847 H   0  0  0  0  0
  -12.9350   -0.3199   39.9567 H   0  0  0  0  0
  -13.7977   -4.0389   40.1858 C   0  0  0  0  0
  -13.8661   -4.9011   41.4118 C   0  0  0  0  0
  -14.6587   -4.5151   42.4927 C   0  0  0  0  0
  -14.7225   -5.3169   43.6323 C   0  0  0  0  0
  -13.9935   -6.5046   43.6912 C   0  0  0  0  0
  -13.2007   -6.8906   42.6104 C   0  0  0  0  0
  -13.1369   -6.0889   41.4707 C   0  0  0  0  0
  -12.5402   -6.3795   40.6571 H   0  0  0  0  0
  -12.6519   -7.7847   42.6547 H   0  0  0  0  0
  -14.0414   -7.1081   44.5491 H   0  0  0  0  0
  -15.3192   -5.0263   44.4459 H   0  0  0  0  0
  -15.2075   -3.6210   42.4485 H   0  0  0  0  0
  -13.3521   -4.5752   39.4007 H   0  0  0  0  0
  -14.7662   -3.7466   39.9046 H   0  0  0  0  0
  1  2  1  0  0  0
  1 43  1  0  0  0
  2  3  1  0  0  0
  2  7  2  0  0  0
  3  4  2  0  0  0
  3 42  1  0  0  0
  4  5  1  0  0  0
  4 41  1  0  0  0
  5  6  2  0  0  0
  5 10  1  0  0  0
  6  7  1  0  0  0
  6  9  1  0  0  0
  7  8  1  0  0  0
 10 11  1  0  0  0
 10 32  1  0  0  0
 10 40  1  0  0  0
 11 12  1  0  0  0
 11 15  1  0  0  0
 12 13  2  0  0  0
 13 14  1  0  0  0
 13 37  1  0  0  0
 14 15  2  0  0  0
 15 16  1  0  0  0
 16 17  1  0  0  0
 16 36  1  0  0  0
 17 18  1  0  0  0
 17 32  1  0  0  0
 17 35  1  0  0  0
 18 19  1  0  0  0
 18 23  2  0  0  0
 19 20  2  0  0  0
 19 31  1  0  0  0
 20 21  1  0  0  0
 20 30  1  0  0  0
 21 22  2  0  0  0
 21 26  1  0  0  0
 22 23  1  0  0  0
 22 25  1  0  0  0
 23 24  1  0  0  0
 26 27  1  0  0  0
 26 28  1  0  0  0
 26 29  1  0  0  0
 32 33  1  0  0  0
 32 34  1  0  0  0
 37 38  1  0  0  0
 37 39  1  0  0  0
 43 44  1  0  0  0
 43 55  1  0  0  0
 43 56  1  0  0  0
 44 45  1  0  0  0
 44 49  2  0  0  0
 45 46  2  0  0  0
 45 54  1  0  0  0
 46 47  1  0  0  0
 46 53  1  0  0  0
 47 48  2  0  0  0
 47 52  1  0  0  0
 48 49  1  0  0  0
 48 51  1  0  0  0
 49 50  1  0  0  0
M  END
> <CNNaffinity_variance>
0.10922079

> <CNN_VS>
6.4254746

> <CNNscore>
0.9052549

> <rmsd>
0.9362796

> <minimizedAffinity>
-9.72888

> <Unaligned Pharm. Score (w/o EVS)>
36.59

> <Pharm. Score>
46.69

> <CNNaffinity>
7.097973

> <Unaligned Pharm. Score>
36.59

$$$$
ZINC11296714
XX    ILIB05142104133D

 41 43  0  0  1  0              1 V2000
   -8.6032   -2.8708   36.8141 Cl  0  0  0  0  0
  -10.0056   -3.0213   37.8146 C   0  0  0  0  0
  -11.0369   -2.0826   37.7850 C   0  0  0  0  0
  -12.1495   -2.2426   38.6107 C   0  0  0  0  0
  -12.2310   -3.3414   39.4661 C   0  0  0  0  0
  -13.3641   -3.5058   40.3058 N   0  3  0  0  0
  -14.4639   -3.8183   39.7891 O   0  0  0  0  0
  -13.2348   -3.3334   41.5422 O   0  0  0  0  0
  -12.2591   -3.0799   41.7533 H   0  0  0  0  0
  -11.1998   -4.2800   39.4957 C   0  0  0  0  0
  -10.0871   -4.1202   38.6699 C   0  0  0  0  0
   -9.3109   -4.8270   38.6921 H   0  0  0  0  0
  -11.2610   -5.1070   40.1397 H   0  0  0  0  0
  -12.9258   -1.5359   38.5884 H   0  0  0  0  0
  -11.0006   -0.9163   36.9096 C   0  0  0  0  0
  -11.2705    0.3659   37.2547 C   0  0  0  0  0
  -11.1991    1.4821   36.2920 C   0  0  0  0  0
   -9.9870    1.7705   35.7906 N   0  0  0  0  0
   -9.9997    2.7941   34.9217 C   0  0  0  0  0
  -11.0711    3.5077   34.5403 N   0  0  0  0  0
  -12.2129    3.1071   35.1221 C   0  0  0  0  0
  -12.3535    2.1052   36.0050 N   0  0  0  0  0
  -13.3846    3.8126   34.7716 N   0  0  0  0  0
  -13.3361    4.5757   34.1116 H   0  0  0  0  0
  -14.2711    3.5543   35.1808 H   0  0  0  0  0
   -8.7598    3.1567   34.3519 N   0  0  0  0  0
   -7.5233    2.4907   34.2589 C   0  0  0  0  0
   -7.2864    1.3504   35.0266 C   0  0  0  0  0
   -6.0613    0.6899   34.9344 C   0  0  0  0  0
   -5.0731    1.1697   34.0747 C   0  0  0  0  0
   -5.3101    2.3100   33.3072 C   0  0  0  0  0
   -6.5352    2.9705   33.3993 C   0  0  0  0  0
   -6.7136    3.8290   32.8216 H   0  0  0  0  0
   -4.5663    2.6712   32.6600 H   0  0  0  0  0
   -4.1509    0.6725   34.0054 H   0  0  0  0  0
   -5.8828   -0.1684   35.5122 H   0  0  0  0  0
   -8.0303    0.9893   35.6737 H   0  0  0  0  0
   -8.8664    4.0808   33.9588 H   0  0  0  0  0
  -11.6337    0.6616   38.6053 C   0  0  0  0  0
  -11.9302    0.9039   39.7009 N   0  0  0  0  0
  -10.7445   -1.0274   35.8974 H   0  0  0  0  0
  1  2  1  0  0  0
  2  3  2  0  0  0
  2 11  1  0  0  0
  3  4  1  0  0  0
  3 15  1  0  0  0
  4  5  2  0  0  0
  4 14  1  0  0  0
  5  6  1  0  0  0
  5 10  1  0  0  0
  6  7  2  0  0  0
  6  8  1  0  0  0
  8  9  1  0  0  0
 10 11  2  0  0  0
 10 13  1  0  0  0
 11 12  1  0  0  0
 15 16  2  0  0  0
 15 41  1  0  0  0
 16 17  1  0  0  0
 16 39  1  0  0  0
 17 18  2  0  0  0
 17 22  1  0  0  0
 18 19  1  0  0  0
 19 20  2  0  0  0
 19 26  1  0  0  0
 20 21  1  0  0  0
 21 22  2  0  0  0
 21 23  1  0  0  0
 23 24  1  0  0  0
 23 25  1  0  0  0
 26 27  1  0  0  0
 26 38  1  0  0  0
 27 28  1  0  0  0
 27 32  2  0  0  0
 28 29  2  0  0  0
 28 37  1  0  0  0
 29 30  1  0  0  0
 29 36  1  0  0  0
 30 31  2  0  0  0
 30 35  1  0  0  0
 31 32  1  0  0  0
 31 34  1  0  0  0
 32 33  1  0  0  0
 39 40  3  0  0  0
M  END
> <CNNaffinity_variance>
0.26220602

> <CNN_VS>
7.232168

> <CNNscore>
0.9795094

> <rmsd>
1.0306108

> <minimizedAffinity>
-9.76687

> <Unaligned Pharm. Score (w/o EVS)>
56.84

> <Pharm. Score>
75.65

> <CNNaffinity>
7.3834596

> <Unaligned Pharm. Score>
56.84

$$$$
ZINC01114989
XX    ILIB05142104133D

 53 57  0  0  1  0              1 V2000
  -15.5877   -5.3386   40.7707 Cl  0  0  0  0  0
  -14.9960   -3.8082   40.2521 C   0  0  0  0  0
  -13.6318   -3.6295   40.0215 C   0  0  0  0  0
  -13.1525   -2.3895   39.5992 C   0  0  0  0  0
  -14.0371   -1.3282   39.4077 C   0  0  0  0  0
  -15.4012   -1.5068   39.6383 C   0  0  0  0  0
  -15.8805   -2.7469   40.0604 C   0  0  0  0  0
  -16.9073   -2.8813   40.2338 H   0  0  0  0  0
  -16.0670   -0.7078   39.4942 H   0  0  0  0  0
  -13.5162    0.0187   38.9475 C   0  0  2  0  0
  -14.4457    0.6332   37.9993 N   0  0  0  0  0
  -14.0366    1.6254   37.1769 C   0  0  0  0  0
  -12.7035    1.9308   37.0733 N   0  0  0  0  0
  -12.5020    2.9955   36.2788 N   0  0  0  0  0
  -13.7485    3.2419   35.8704 C   0  0  0  0  0
  -14.7179    2.4289   36.3880 N   0  0  0  0  0
  -14.1197    4.2213   35.0059 N   0  0  0  0  0
  -13.4239    4.8397   34.6142 H   0  0  0  0  0
  -15.0918    4.3313   34.7548 H   0  0  0  0  0
  -11.6273    1.2735   37.8141 C   0  0  2  0  0
  -10.3552    1.1546   36.9997 C   0  0  0  0  0
  -10.3169    1.6370   35.6915 C   0  0  0  0  0
   -9.1457    1.5275   34.9416 C   0  0  0  0  0
   -8.0129    0.9354   35.5000 C   0  0  0  0  0
   -6.8711    0.8279   34.7673 O   0  0  0  0  0
   -6.0153    1.9691   34.7276 C   0  0  0  0  0
   -4.6158    1.5212   34.4239 C   0  0  0  0  0
   -3.7910    2.3073   33.6195 C   0  0  0  0  0
   -2.4899    1.8910   33.3374 C   0  0  0  0  0
   -2.0136    0.6887   33.8597 C   0  0  0  0  0
   -2.8385   -0.0976   34.6642 C   0  0  0  0  0
   -4.1395    0.3187   34.9464 C   0  0  0  0  0
   -4.7603   -0.2730   35.5522 H   0  0  0  0  0
   -2.4801   -1.0028   35.0574 H   0  0  0  0  0
   -1.0342    0.3754   33.6474 H   0  0  0  0  0
   -1.8689    2.4828   32.7318 H   0  0  0  0  0
   -4.1494    3.2125   33.2262 H   0  0  0  0  0
   -6.3457    2.6284   33.9801 H   0  0  0  0  0
   -6.0370    2.4554   35.6579 H   0  0  0  0  0
   -8.0512    0.4529   36.8084 C   0  0  0  0  0
   -9.2224    0.5624   37.5581 C   0  0  0  0  0
   -9.2512    0.1991   38.5428 H   0  0  0  0  0
   -7.1984    0.0073   37.2288 H   0  0  0  0  0
   -9.1169    1.8907   33.9569 H   0  0  0  0  0
  -11.1696    2.0826   35.2711 H   0  0  0  0  0
  -12.1125   -0.1009   38.3198 C   0  0  0  0  0
  -12.1549   -0.7747   37.5156 H   0  0  0  0  0
  -11.4446   -0.4629   39.0447 H   0  0  0  0  0
  -11.4083    1.8276   38.6787 H   0  0  0  0  0
  -15.4015    0.3089   37.9630 H   0  0  0  0  0
  -13.4046    0.6442   39.7834 H   0  0  0  0  0
  -12.1257   -2.2550   39.4255 H   0  0  0  0  0
  -12.9659   -4.4284   40.1658 H   0  0  0  0  0
  1  2  1  0  0  0
  2  3  1  0  0  0
  2  7  2  0  0  0
  3  4  2  0  0  0
  3 53  1  0  0  0
  4  5  1  0  0  0
  4 52  1  0  0  0
  5  6  2  0  0  0
  5 10  1  0  0  0
  6  7  1  0  0  0
  6  9  1  0  0  0
  7  8  1  0  0  0
 10 11  1  0  0  0
 10 46  1  0  0  0
 10 51  1  0  0  0
 11 12  1  0  0  0
 11 50  1  0  0  0
 12 13  1  0  0  0
 12 16  2  0  0  0
 13 14  1  0  0  0
 13 20  1  0  0  0
 14 15  2  0  0  0
 15 16  1  0  0  0
 15 17  1  0  0  0
 17 18  1  0  0  0
 17 19  1  0  0  0
 20 21  1  0  0  0
 20 46  1  0  0  0
 20 49  1  0  0  0
 21 22  1  0  0  0
 21 41  2  0  0  0
 22 23  2  0  0  0
 22 45  1  0  0  0
 23 24  1  0  0  0
 23 44  1  0  0  0
 24 25  1  0  0  0
 24 40  2  0  0  0
 25 26  1  0  0  0
 26 27  1  0  0  0
 26 38  1  0  0  0
 26 39  1  0  0  0
 27 28  1  0  0  0
 27 32  2  0  0  0
 28 29  2  0  0  0
 28 37  1  0  0  0
 29 30  1  0  0  0
 29 36  1  0  0  0
 30 31  2  0  0  0
 30 35  1  0  0  0
 31 32  1  0  0  0
 31 34  1  0  0  0
 32 33  1  0  0  0
 40 41  1  0  0  0
 40 43  1  0  0  0
 41 42  1  0  0  0
 46 47  1  0  0  0
 46 48  1  0  0  0
M  END
> <CNNaffinity_variance>
0.099735215

> <CNN_VS>
5.9383254

> <CNNscore>
0.846575

> <rmsd>
0.93617535

> <minimizedAffinity>
-9.8055

> <Unaligned Pharm. Score (w/o EVS)>
55.06

> <Pharm. Score>
46.69

> <CNNaffinity>
7.014529

> <Unaligned Pharm. Score>
55.06

$$$$
ZINC72143513
XX    ILIB05142104133D

 48 51  0  0  1  0              1 V2000
  -12.6426    3.6846   34.7653 N   0  0  0  0  0
  -11.5325    2.9659   35.1235 C   0  0  0  0  0
  -10.2830    3.2062   34.6828 N   0  0  0  0  0
   -9.3701    2.3470   35.1928 C   0  0  0  0  0
   -8.0155    2.5079   34.7951 N   0  0  0  0  0
   -7.1625    1.4017   34.5160 C   0  0  0  0  0
   -5.7250    1.7481   34.8554 C   0  0  0  0  0
   -4.8322    1.3211   33.7498 N   0  0  0  0  0
   -3.3709    1.4966   34.0829 C   0  0  0  0  0
   -2.7854    1.0380   33.3416 H   0  0  0  0  0
   -3.1422    2.5204   34.1259 H   0  0  0  0  0
   -3.1682    1.0533   35.0129 H   0  0  0  0  0
   -5.1199   -0.0843   33.2815 C   0  0  0  0  0
   -6.0504   -0.1076   32.7955 H   0  0  0  0  0
   -4.3691   -0.3917   32.6149 H   0  0  0  0  0
   -5.1405   -0.7313   34.1081 H   0  0  0  0  0
   -5.6405    2.7856   34.9928 H   0  0  0  0  0
   -5.4479    1.2542   35.7397 H   0  0  0  0  0
   -7.2256    1.1596   33.4963 H   0  0  0  0  0
   -7.4614    0.5755   35.0910 H   0  0  0  0  0
   -7.6235    3.4339   34.7009 H   0  0  0  0  0
   -9.6319    1.3102   36.0782 C   0  0  0  0  0
  -10.9436    1.1058   36.5022 C   0  0  0  0  0
  -11.9350    1.9676   36.0058 C   0  0  0  0  0
  -13.3385    2.1068   36.1717 C   0  0  0  0  0
  -13.7458    3.1714   35.3968 C   0  0  0  0  0
  -14.6899    3.6026   35.2377 H   0  0  0  0  0
  -14.0409    1.5722   36.7403 H   0  0  0  0  0
  -11.2993    0.0480   37.4233 C   0  0  0  0  0
  -10.3114   -0.8021   37.9231 C   0  0  0  0  0
  -10.6418   -1.8326   38.8185 C   0  0  0  0  0
  -11.9871   -1.9987   39.2074 C   0  0  0  0  0
  -12.2771   -3.0337   40.0986 C   0  0  0  0  0
  -11.3577   -3.8827   40.6107 N   0  0  0  0  0
  -10.0804   -3.6937   40.2164 C   0  0  0  0  0
   -9.0785   -4.5594   40.7218 N   0  0  0  0  0
   -9.3264   -5.2975   41.3651 H   0  0  0  0  0
   -8.1166   -4.4381   40.4387 H   0  0  0  0  0
   -9.6745   -2.7011   39.3373 C   0  0  0  0  0
   -8.6614   -2.6140   39.0753 H   0  0  0  0  0
  -13.2875   -3.1296   40.3675 H   0  0  0  0  0
  -12.9729   -1.1375   38.6979 C   0  0  0  0  0
  -12.6272   -0.1194   37.8098 C   0  0  0  0  0
  -13.3686    0.5212   37.4324 H   0  0  0  0  0
  -13.9755   -1.2587   38.9855 H   0  0  0  0  0
   -9.3140   -0.6660   37.6242 H   0  0  0  0  0
   -8.8487    0.6976   36.4156 H   0  0  0  0  0
  -12.7379    4.4771   34.1466 H   0  0  0  0  0
  1  2  1  0  0  0
  1 26  1  0  0  0
  1 48  1  0  0  0
  2  3  1  0  0  0
  2 24  2  0  0  0
  3  4  2  0  0  0
  4  5  1  0  0  0
  4 22  1  0  0  0
  5  6  1  0  0  0
  5 21  1  0  0  0
  6  7  1  0  0  0
  6 19  1  0  0  0
  6 20  1  0  0  0
  7  8  1  0  0  0
  7 17  1  0  0  0
  7 18  1  0  0  0
  8  9  1  0  0  0
  8 13  1  0  0  0
  9 10  1  0  0  0
  9 11  1  0  0  0
  9 12  1  0  0  0
 13 14  1  0  0  0
 13 15  1  0  0  0
 13 16  1  0  0  0
 22 23  2  0  0  0
 22 47  1  0  0  0
 23 24  1  0  0  0
 23 29  1  0  0  0
 24 25  1  0  0  0
 25 26  2  0  0  0
 25 28  1  0  0  0
 26 27  1  0  0  0
 29 30  2  0  0  0
 29 43  1  0  0  0
 30 31  1  0  0  0
 30 46  1  0  0  0
 31 32  2  0  0  0
 31 39  1  0  0  0
 32 33  1  0  0  0
 32 42  1  0  0  0
 33 34  2  0  0  0
 33 41  1  0  0  0
 34 35  1  0  0  0
 35 36  1  0  0  0
 35 39  2  0  0  0
 36 37  1  0  0  0
 36 38  1  0  0  0
 39 40  1  0  0  0
 42 43  2  0  0  0
 42 45  1  0  0  0
 43 44  1  0  0  0
M  END
> <CNNaffinity_variance>
0.058614932

> <CNN_VS>
7.00283

> <CNNscore>
0.98777467

> <rmsd>
0.70166343

> <minimizedAffinity>
-10.0884

> <Unaligned Pharm. Score (w/o EVS)>
66.35

> <Pharm. Score>
76.65

> <CNNaffinity>
7.0895014

> <Unaligned Pharm. Score>
66.35

$$$$
ZINC38288415
XX    ILIB05142104133D

 51 55  0  0  1  0              1 V2000
  -14.4390    5.4201   34.2613 S   0  0  0  0  0
  -13.4794    4.0790   34.9914 C   0  0  0  0  0
  -14.0493    3.2040   35.9007 N   0  0  0  0  0
  -13.3615    2.1573   36.4925 C   0  0  0  0  0
  -13.8857    1.3944   37.2949 O   0  0  0  0  0
  -11.9529    2.0511   36.0681 C   0  0  0  0  0
  -11.4525    2.9703   35.1482 C   0  0  0  0  0
  -12.2435    4.0007   34.6068 N   0  0  0  0  0
  -11.8441    4.6479   33.9423 H   0  0  0  0  0
  -10.1715    2.9350   34.7131 N   0  0  0  0  0
   -9.3784    1.9585   35.2116 C   0  0  0  0  0
   -8.0223    1.9663   34.7157 C   0  0  0  0  0
   -7.0421    1.2062   35.3539 C   0  0  0  0  0
   -5.7320    1.2138   34.8752 C   0  0  0  0  0
   -5.4021    1.9813   33.7582 C   0  0  0  0  0
   -4.1443    1.9882   33.2982 F   0  0  0  0  0
   -6.3823    2.7413   33.1199 C   0  0  0  0  0
   -7.6924    2.7338   33.5987 C   0  0  0  0  0
   -8.4302    3.3059   33.1183 H   0  0  0  0  0
   -6.1339    3.3191   32.2791 H   0  0  0  0  0
   -4.9942    0.6417   35.3556 H   0  0  0  0  0
   -7.2904    0.6284   36.1948 H   0  0  0  0  0
   -9.7962    1.0070   36.1277 C   0  0  0  0  0
  -11.1140    1.0566   36.5643 C   0  0  0  0  0
  -11.5281    0.0507   37.5234 C   0  0  0  0  0
  -12.6905    0.2372   38.2716 C   0  0  0  0  0
  -13.0889   -0.7302   39.1941 C   0  0  0  0  0
  -12.3246   -1.8841   39.3685 C   0  0  0  0  0
  -12.7131   -2.8279   40.2687 O   0  0  0  0  0
  -11.7783   -3.8634   40.5684 C   0  0  0  0  0
  -12.3079   -5.1671   40.0477 C   0  0  0  0  0
  -11.5018   -5.9786   39.2494 C   0  0  0  0  0
  -11.9939   -7.1906   38.7654 C   0  0  0  0  0
  -13.2926   -7.5912   39.0797 C   0  0  0  0  0
  -14.0988   -6.7798   39.8779 C   0  0  0  0  0
  -13.6066   -5.5678   40.3619 C   0  0  0  0  0
  -14.2135   -4.9571   40.9628 H   0  0  0  0  0
  -15.0764   -7.0813   40.1143 H   0  0  0  0  0
  -13.6632   -8.5036   38.7155 H   0  0  0  0  0
  -11.3869   -7.8014   38.1646 H   0  0  0  0  0
  -10.5242   -5.6770   39.0127 H   0  0  0  0  0
  -11.6461   -3.9255   41.6082 H   0  0  0  0  0
  -10.8582   -3.6475   40.1108 H   0  0  0  0  0
  -11.1622   -2.0705   38.6204 C   0  0  0  0  0
  -10.7640   -1.1031   37.6978 C   0  0  0  0  0
   -9.8890   -1.2434   37.1346 H   0  0  0  0  0
  -10.5870   -2.9390   38.7518 H   0  0  0  0  0
  -13.9639   -0.5900   39.7573 H   0  0  0  0  0
  -13.2656    1.1058   38.1404 H   0  0  0  0  0
   -9.1233    0.2777   36.4710 H   0  0  0  0  0
  -15.0212    3.3611   36.1263 H   0  0  0  0  0
  1  2  2  0  0  0
  2  3  1  0  0  0
  2  8  1  0  0  0
  3  4  1  0  0  0
  3 51  1  0  0  0
  4  5  2  0  0  0
  4  6  1  0  0  0
  6  7  1  0  0  0
  6 24  2  0  0  0
  7  8  1  0  0  0
  7 10  2  0  0  0
  8  9  1  0  0  0
 10 11  1  0  0  0
 11 12  1  0  0  0
 11 23  2  0  0  0
 12 13  1  0  0  0
 12 18  2  0  0  0
 13 14  2  0  0  0
 13 22  1  0  0  0
 14 15  1  0  0  0
 14 21  1  0  0  0
 15 16  1  0  0  0
 15 17  2  0  0  0
 17 18  1  0  0  0
 17 20  1  0  0  0
 18 19  1  0  0  0
 23 24  1  0  0  0
 23 50  1  0  0  0
 24 25  1  0  0  0
 25 26  1  0  0  0
 25 45  2  0  0  0
 26 27  2  0  0  0
 26 49  1  0  0  0
 27 28  1  0  0  0
 27 48  1  0  0  0
 28 29  1  0  0  0
 28 44  2  0  0  0
 29 30  1  0  0  0
 30 31  1  0  0  0
 30 42  1  0  0  0
 30 43  1  0  0  0
 31 32  1  0  0  0
 31 36  2  0  0  0
 32 33  2  0  0  0
 32 41  1  0  0  0
 33 34  1  0  0  0
 33 40  1  0  0  0
 34 35  2  0  0  0
 34 39  1  0  0  0
 35 36  1  0  0  0
 35 38  1  0  0  0
 36 37  1  0  0  0
 44 45  1  0  0  0
 44 47  1  0  0  0
 45 46  1  0  0  0
M  END
> <CNNaffinity_variance>
0.070360795

> <CNN_VS>
7.5914626

> <CNNscore>
0.97722524

> <rmsd>
0.9339615

> <minimizedAffinity>
-10.48481

> <Unaligned Pharm. Score (w/o EVS)>
36.02

> <Pharm. Score>
45.7

> <CNNaffinity>
7.768386

> <Unaligned Pharm. Score>
36.02

$$$$
ZINC16609870
XX    ILIB05142104133D

 46 50  0  0  1  0              1 V2000
   -9.6597    1.7177   33.6142 O   0  0  0  0  0
   -9.1246    0.8696   34.5541 C   0  0  0  0  0
   -9.7347    0.6359   35.7991 C   0  0  0  0  0
  -10.9792    1.3332   36.1103 C   0  0  0  0  0
  -11.6921    0.9543   37.1943 N   0  0  0  0  0
  -12.8358    1.6353   37.4044 C   0  0  0  0  0
  -13.3300    2.6399   36.6573 N   0  0  0  0  0
  -12.5772    2.9791   35.5918 C   0  0  0  0  0
  -13.0350    4.0364   34.7931 N   0  0  0  0  0
  -13.9278    5.0566   35.1426 C   0  0  0  0  0
  -14.4806    5.2149   36.2262 O   0  0  0  0  0
  -14.1557    6.0047   33.9746 C   0  0  0  0  0
  -15.3158    6.9557   34.2082 C   0  0  0  0  0
  -14.9953    7.9435   34.0533 H   0  0  0  0  0
  -15.6617    6.8504   35.1940 H   0  0  0  0  0
  -16.0929    6.7308   33.5388 H   0  0  0  0  0
  -13.2929    6.5826   33.8195 H   0  0  0  0  0
  -14.3652    5.4491   33.1086 H   0  0  0  0  0
  -12.7153    4.1238   33.8391 H   0  0  0  0  0
  -11.3889    2.3512   35.2632 C   0  0  0  0  0
  -10.5222    2.7581   34.1104 C   0  0  1  0  0
   -9.7653    3.9004   34.5068 O   0  0  0  0  0
   -9.1137    4.1592   33.7523 H   0  0  0  0  0
  -11.1952    3.0440   33.3569 H   0  0  0  0  0
  -13.6121    1.2462   38.5524 C   0  0  0  0  0
  -14.5596    2.1271   39.0797 C   0  0  0  0  0
  -15.2788    1.7099   40.1808 C   0  0  0  0  0
  -16.2373    2.4277   40.8272 O   0  0  0  0  0
  -16.6199    1.5032   41.8660 C   0  0  0  0  0
  -15.8890    0.2606   41.8226 O   0  0  0  0  0
  -15.0801    0.4723   40.7489 C   0  0  0  0  0
  -14.1511   -0.4161   40.2478 C   0  0  0  0  0
  -13.4092   -0.0182   39.1330 C   0  0  0  0  0
  -12.6948   -0.6730   38.7288 H   0  0  0  0  0
  -14.0221   -1.3533   40.7033 H   0  0  0  0  0
  -17.6400    1.2730   41.7715 H   0  0  0  0  0
  -16.4452    1.9397   42.8048 H   0  0  0  0  0
  -14.7338    3.0772   38.6681 H   0  0  0  0  0
   -9.1253   -0.2754   36.6751 C   0  0  0  0  0
   -7.9494   -0.9380   36.3131 C   0  0  0  0  0
   -7.3689   -0.7058   35.0686 C   0  0  0  0  0
   -7.9587    0.1937   34.1845 C   0  0  0  0  0
   -7.5291    0.3647   33.2418 H   0  0  0  0  0
   -6.4878   -1.2080   34.7966 H   0  0  0  0  0
   -7.5007   -1.6134   36.9801 H   0  0  0  0  0
   -9.5526   -0.4661   37.6150 H   0  0  0  0  0
  1  2  1  0  0  0
  1 21  1  0  0  0
  2  3  2  0  0  0
  2 42  1  0  0  0
  3  4  1  0  0  0
  3 39  1  0  0  0
  4  5  1  0  0  0
  4 20  2  0  0  0
  5  6  2  0  0  0
  6  7  1  0  0  0
  6 25  1  0  0  0
  7  8  2  0  0  0
  8  9  1  0  0  0
  8 20  1  0  0  0
  9 10  1  0  0  0
  9 19  1  0  0  0
 10 11  2  0  0  0
 10 12  1  0  0  0
 12 13  1  0  0  0
 12 17  1  0  0  0
 12 18  1  0  0  0
 13 14  1  0  0  0
 13 15  1  0  0  0
 13 16  1  0  0  0
 20 21  1  0  0  0
 21 22  1  0  0  0
 21 24  1  0  0  0
 22 23  1  0  0  0
 25 26  2  0  0  0
 25 33  1  0  0  0
 26 27  1  0  0  0
 26 38  1  0  0  0
 27 28  1  0  0  0
 27 31  2  0  0  0
 28 29  1  0  0  0
 29 30  1  0  0  0
 29 36  1  0  0  0
 29 37  1  0  0  0
 30 31  1  0  0  0
 31 32  1  0  0  0
 32 33  2  0  0  0
 32 35  1  0  0  0
 33 34  1  0  0  0
 39 40  2  0  0  0
 39 46  1  0  0  0
 40 41  1  0  0  0
 40 45  1  0  0  0
 41 42  2  0  0  0
 41 44  1  0  0  0
 42 43  1  0  0  0
M  END
> <CNNaffinity_variance>
0.07582268

> <CNN_VS>
6.890904

> <CNNscore>
0.9570944

> <rmsd>
0.92678744

> <minimizedAffinity>
-11.75483

> <Unaligned Pharm. Score (w/o EVS)>
46.19

> <Pharm. Score>
55.77

> <CNNaffinity>
7.1998167

> <Unaligned Pharm. Score>
46.19

$$$$
ZINC72146015
XX    ILIB05142104133D

 43 46  0  0  1  0              1 V2000
  -13.5274   -2.0402   39.6293 S   0  0  0  0  0
  -12.7351   -3.4832   40.0943 C   0  0  0  0  0
  -11.5424   -3.6867   39.5854 N   0  0  0  0  0
  -11.2049   -2.6278   38.7550 C   0  0  0  0  0
  -12.1708   -1.6223   38.6509 C   0  0  0  0  0
  -11.9752   -0.4863   37.8489 C   0  0  0  0  0
  -10.7754   -0.3736   37.1417 C   0  0  0  0  0
  -10.5478    0.7820   36.3102 C   0  0  0  0  0
  -11.6274    1.5915   35.9215 C   0  0  0  0  0
  -11.3455    2.6929   35.1189 C   0  0  0  0  0
  -12.5259    3.3380   34.8589 N   0  0  0  0  0
  -13.5565    2.6772   35.4758 C   0  0  0  0  0
  -13.0303    1.5910   36.1413 C   0  0  0  0  0
  -13.6622    0.9497   36.6816 H   0  0  0  0  0
  -14.5393    3.0350   35.3838 H   0  0  0  0  0
  -12.7122    4.1685   34.3153 H   0  0  0  0  0
  -10.1387    3.0797   34.6636 N   0  0  0  0  0
   -9.1369    2.2647   35.0682 C   0  0  0  0  0
   -7.8171    2.5785   34.6457 N   0  0  0  0  0
   -6.9036    1.5867   34.1863 C   0  0  0  0  0
   -5.4961    1.9150   34.6471 C   0  0  0  0  0
   -4.5239    1.5513   33.5867 N   0  0  0  0  0
   -3.0915    1.6810   34.0431 C   0  0  0  0  0
   -2.8627    2.6946   34.1943 H   0  0  0  0  0
   -2.4533    1.2838   33.3100 H   0  0  0  0  0
   -2.9617    1.1549   34.9425 H   0  0  0  0  0
   -4.7883    0.1860   33.0009 C   0  0  0  0  0
   -4.7626   -0.5337   33.7650 H   0  0  0  0  0
   -4.0524   -0.0365   32.2857 H   0  0  0  0  0
   -5.7338    0.1781   32.5443 H   0  0  0  0  0
   -5.2807    1.3729   35.5202 H   0  0  0  0  0
   -5.4269    2.9434   34.8476 H   0  0  0  0  0
   -7.1810    0.6501   34.5715 H   0  0  0  0  0
   -6.9220    1.5530   33.1370 H   0  0  0  0  0
   -7.4951    3.5356   34.6641 H   0  0  0  0  0
   -9.2752    1.1372   35.8664 C   0  0  0  0  0
   -8.4302    0.5700   36.1248 H   0  0  0  0  0
   -9.8000   -1.3608   37.2297 C   0  0  0  0  0
  -10.0015   -2.4891   38.0301 C   0  0  0  0  0
   -9.2620   -3.2317   38.0933 H   0  0  0  0  0
   -8.9033   -1.2623   36.6924 H   0  0  0  0  0
  -12.7206    0.2510   37.7922 H   0  0  0  0  0
  -13.2052   -4.1510   40.7542 H   0  0  0  0  0
  1  2  1  0  0  0
  1  5  1  0  0  0
  2  3  2  0  0  0
  2 43  1  0  0  0
  3  4  1  0  0  0
  4  5  2  0  0  0
  4 39  1  0  0  0
  5  6  1  0  0  0
  6  7  2  0  0  0
  6 42  1  0  0  0
  7  8  1  0  0  0
  7 38  1  0  0  0
  8  9  1  0  0  0
  8 36  2  0  0  0
  9 10  2  0  0  0
  9 13  1  0  0  0
 10 11  1  0  0  0
 10 17  1  0  0  0
 11 12  1  0  0  0
 11 16  1  0  0  0
 12 13  2  0  0  0
 12 15  1  0  0  0
 13 14  1  0  0  0
 17 18  2  0  0  0
 18 19  1  0  0  0
 18 36  1  0  0  0
 19 20  1  0  0  0
 19 35  1  0  0  0
 20 21  1  0  0  0
 20 33  1  0  0  0
 20 34  1  0  0  0
 21 22  1  0  0  0
 21 31  1  0  0  0
 21 32  1  0  0  0
 22 23  1  0  0  0
 22 27  1  0  0  0
 23 24  1  0  0  0
 23 25  1  0  0  0
 23 26  1  0  0  0
 27 28  1  0  0  0
 27 29  1  0  0  0
 27 30  1  0  0  0
 36 37  1  0  0  0
 38 39  2  0  0  0
 38 41  1  0  0  0
 39 40  1  0  0  0
M  END
> <CNNaffinity_variance>
0.07407655

> <CNN_VS>
7.0495214

> <CNNscore>
0.9909564

> <rmsd>
0.92633677

> <minimizedAffinity>
-9.56826

> <Unaligned Pharm. Score (w/o EVS)>
76.14

> <Pharm. Score>
76.68

> <CNNaffinity>
7.1138563

> <Unaligned Pharm. Score>
76.14

$$$$
ZINC09224703
XX    ILIB05142104133D

 53 57  0  0  1  0              1 V2000
  -14.9916    5.6659   33.8654 O   0  0  0  0  0
  -14.0941    6.3801   34.6010 C   0  0  0  0  0
  -13.7691    5.9933   35.9011 C   0  0  0  0  0
  -12.8481    6.7358   36.6400 C   0  0  0  0  0
  -12.2523    7.8655   36.0787 C   0  0  0  0  0
  -12.5772    8.2521   34.7787 C   0  0  0  0  0
  -13.4982    7.5096   34.0397 C   0  0  0  0  0
  -13.7431    7.8008   33.0611 H   0  0  0  0  0
  -12.1285    9.1022   34.3563 H   0  0  0  0  0
  -11.5591    8.4246   36.6350 H   0  0  0  0  0
  -12.6033    6.4445   37.6186 H   0  0  0  0  0
  -14.4004    4.7805   36.5211 C   0  0  0  0  0
  -14.1848    3.6029   35.7353 N   0  0  0  0  0
  -12.9985    2.9146   35.8283 C   0  0  0  0  0
  -11.9744    3.2394   35.0720 N   0  0  0  0  0
  -10.7519    2.5217   35.1765 C   0  0  0  0  0
  -10.5642    1.4473   36.0717 C   0  0  0  0  0
  -11.6674    1.1232   36.8629 N   0  0  0  0  0
  -12.8364    1.8192   36.7541 C   0  0  0  0  0
  -13.7241    1.3360   37.5923 N   0  0  0  0  0
  -13.1161    0.2926   38.2700 N   0  0  0  0  0
  -11.8832    0.1799   37.8189 C   0  0  0  0  0
  -10.9185   -0.8236   38.3022 C   0  0  0  0  0
  -10.7105   -1.5079   37.5334 H   0  0  0  0  0
  -10.0309   -0.3441   38.5935 H   0  0  0  0  0
  -11.3265   -1.3340   39.1241 H   0  0  0  0  0
   -9.3574    0.7559   36.1594 C   0  0  0  0  0
   -8.3039    1.1429   35.3329 C   0  0  0  0  0
   -8.4633    2.2032   34.4373 C   0  0  0  0  0
   -9.6793    2.8884   34.3595 C   0  0  0  0  0
   -9.7836    3.6833   33.6814 H   0  0  0  0  0
   -7.6665    2.4905   33.8167 H   0  0  0  0  0
   -7.0316    0.4406   35.4006 C   0  0  0  0  0
   -6.9266   -0.5984   36.0688 O   0  0  0  0  0
   -5.8123    0.9228   34.6850 C   0  0  0  0  0
   -4.5472    0.5233   35.1160 C   0  0  0  0  0
   -3.4085    0.9733   34.4476 C   0  0  0  0  0
   -3.5347    1.8224   33.3484 C   0  0  0  0  0
   -4.7999    2.2218   32.9175 C   0  0  0  0  0
   -5.9386    1.7721   33.5857 C   0  0  0  0  0
   -6.8908    2.0727   33.2612 H   0  0  0  0  0
   -4.8950    2.8611   32.0900 H   0  0  0  0  0
   -2.6775    2.1609   32.8454 H   0  0  0  0  0
   -2.4562    0.6727   34.7721 H   0  0  0  0  0
   -4.4521   -0.1160   35.9435 H   0  0  0  0  0
   -9.2558   -0.0388   36.8381 H   0  0  0  0  0
  -14.9090    3.2788   35.1105 H   0  0  0  0  0
  -13.9838    4.6455   37.4755 H   0  0  0  0  0
  -15.4315    4.9572   36.6111 H   0  0  0  0  0
  -16.2404    6.2928   33.5807 C   0  0  0  0  0
  -16.7206    5.7785   32.8013 H   0  0  0  0  0
  -16.8458    6.2726   34.4384 H   0  0  0  0  0
  -16.0745    7.2888   33.2927 H   0  0  0  0  0
  1  2  1  0  0  0
  1 50  1  0  0  0
  2  3  2  0  0  0
  2  7  1  0  0  0
  3  4  1  0  0  0
  3 12  1  0  0  0
  4  5  2  0  0  0
  4 11  1  0  0  0
  5  6  1  0  0  0
  5 10  1  0  0  0
  6  7  2  0  0  0
  6  9  1  0  0  0
  7  8  1  0  0  0
 12 13  1  0  0  0
 12 48  1  0  0  0
 12 49  1  0  0  0
 13 14  1  0  0  0
 13 47  1  0  0  0
 14 15  2  0  0  0
 14 19  1  0  0  0
 15 16  1  0  0  0
 16 17  2  0  0  0
 16 30  1  0  0  0
 17 18  1  0  0  0
 17 27  1  0  0  0
 18 19  1  0  0  0
 18 22  1  0  0  0
 19 20  2  0  0  0
 20 21  1  0  0  0
 21 22  2  0  0  0
 22 23  1  0  0  0
 23 24  1  0  0  0
 23 25  1  0  0  0
 23 26  1  0  0  0
 27 28  2  0  0  0
 27 46  1  0  0  0
 28 29  1  0  0  0
 28 33  1  0  0  0
 29 30  2  0  0  0
 29 32  1  0  0  0
 30 31  1  0  0  0
 33 34  2  0  0  0
 33 35  1  0  0  0
 35 36  1  0  0  0
 35 40  2  0  0  0
 36 37  2  0  0  0
 36 45  1  0  0  0
 37 38  1  0  0  0
 37 44  1  0  0  0
 38 39  2  0  0  0
 38 43  1  0  0  0
 39 40  1  0  0  0
 39 42  1  0  0  0
 40 41  1  0  0  0
 50 51  1  0  0  0
 50 52  1  0  0  0
 50 53  1  0  0  0
M  END
> <CNNaffinity_variance>
0.14387381

> <CNN_VS>
6.8512335

> <CNNscore>
0.94320315

> <rmsd>
1.1728257

> <minimizedAffinity>
-9.0243

> <Unaligned Pharm. Score (w/o EVS)>
45.74

> <Pharm. Score>
85.56

> <CNNaffinity>
7.263794

> <Unaligned Pharm. Score>
45.74

$$$$
ZINC72454514
XX    ILIB05142104133D

 44 48  0  0  1  0              1 V2000
  -12.6395   -2.6237   40.8594 O   0  0  0  0  0
  -11.6129   -2.8331   39.9902 C   0  0  0  0  0
  -10.9998   -3.9798   40.1685 N   0  0  0  0  0
  -11.6459   -4.5946   41.2248 N   0  0  0  0  0
  -12.5952   -3.7675   41.5960 C   0  0  0  0  0
  -13.2826   -3.9170   42.3755 H   0  0  0  0  0
  -11.3710   -1.7808   39.0339 C   0  0  0  0  0
  -12.0903   -0.5882   39.1123 C   0  0  0  0  0
  -11.8565    0.4295   38.1876 C   0  0  0  0  0
  -10.9032    0.2546   37.1842 C   0  0  0  0  0
  -10.6614    1.3065   36.2282 C   0  0  0  0  0
  -11.6472    2.2770   35.9874 C   0  0  0  0  0
  -11.3563    3.2674   35.0539 C   0  0  0  0  0
  -12.4403    4.1012   34.9724 N   0  0  0  0  0
  -13.4178    3.6697   35.8312 C   0  0  0  0  0
  -12.9550    2.5413   36.4734 C   0  0  0  0  0
  -13.5605    2.0531   37.1788 H   0  0  0  0  0
  -14.3249    4.1941   35.9003 H   0  0  0  0  0
  -12.5927    4.9234   34.4059 H   0  0  0  0  0
  -10.2216    3.4061   34.3424 N   0  0  0  0  0
   -9.3083    2.4449   34.6143 C   0  0  0  0  0
   -8.0701    2.4931   33.9194 N   0  0  0  0  0
   -7.4175    1.3232   33.4346 C   0  0  0  0  0
   -6.1481    1.0368   34.1835 C   0  0  0  0  0
   -6.1671    0.2039   35.2967 C   0  0  0  0  0
   -4.9692   -0.0296   35.9526 C   0  0  0  0  0
   -3.7845    0.5024   35.5769 N   0  0  0  0  0
   -3.8052    1.3068   34.4905 C   0  0  0  0  0
   -4.9487    1.6028   33.7660 C   0  0  0  0  0
   -4.8917    2.2366   32.9308 H   0  0  0  0  0
   -2.9170    1.7504   34.1487 H   0  0  0  0  0
   -5.0187   -0.6629   36.7887 H   0  0  0  0  0
   -7.0516   -0.2428   35.6440 H   0  0  0  0  0
   -8.0557    0.4964   33.5424 H   0  0  0  0  0
   -7.1783    1.4507   32.4202 H   0  0  0  0  0
   -7.6189    3.3811   33.7524 H   0  0  0  0  0
   -9.4661    1.4027   35.5180 C   0  0  0  0  0
   -8.6929    0.7058   35.6559 H   0  0  0  0  0
  -10.1839   -0.9378   37.1058 C   0  0  0  0  0
  -10.4179   -1.9556   38.0305 C   0  0  0  0  0
   -9.8765   -2.8533   37.9712 H   0  0  0  0  0
   -9.4663   -1.0694   36.3507 H   0  0  0  0  0
  -12.3980    1.3272   38.2466 H   0  0  0  0  0
  -12.8078   -0.4566   39.8675 H   0  0  0  0  0
  1  2  1  0  0  0
  1  5  1  0  0  0
  2  3  2  0  0  0
  2  7  1  0  0  0
  3  4  1  0  0  0
  4  5  2  0  0  0
  5  6  1  0  0  0
  7  8  2  0  0  0
  7 40  1  0  0  0
  8  9  1  0  0  0
  8 44  1  0  0  0
  9 10  2  0  0  0
  9 43  1  0  0  0
 10 11  1  0  0  0
 10 39  1  0  0  0
 11 12  2  0  0  0
 11 37  1  0  0  0
 12 13  1  0  0  0
 12 16  1  0  0  0
 13 14  1  0  0  0
 13 20  2  0  0  0
 14 15  1  0  0  0
 14 19  1  0  0  0
 15 16  2  0  0  0
 15 18  1  0  0  0
 16 17  1  0  0  0
 20 21  1  0  0  0
 21 22  1  0  0  0
 21 37  2  0  0  0
 22 23  1  0  0  0
 22 36  1  0  0  0
 23 24  1  0  0  0
 23 34  1  0  0  0
 23 35  1  0  0  0
 24 25  1  0  0  0
 24 29  2  0  0  0
 25 26  2  0  0  0
 25 33  1  0  0  0
 26 27  1  0  0  0
 26 32  1  0  0  0
 27 28  2  0  0  0
 28 29  1  0  0  0
 28 31  1  0  0  0
 29 30  1  0  0  0
 37 38  1  0  0  0
 39 40  2  0  0  0
 39 42  1  0  0  0
 40 41  1  0  0  0
M  END
> <CNNaffinity_variance>
0.14464326

> <CNN_VS>
7.174986

> <CNNscore>
0.98751175

> <rmsd>
0.9778865

> <minimizedAffinity>
-10.18096

> <Unaligned Pharm. Score (w/o EVS)>
46.81

> <Pharm. Score>
86.01

> <CNNaffinity>
7.265722

> <Unaligned Pharm. Score>
46.81

$$$$
ZINC72168947
XX    ILIB05142104133D

 47 50  0  0  1  0              1 V2000
  -11.5716   -3.5100   40.0945 N   0  0  0  0  0
  -12.7407   -3.2565   40.7061 N   0  0  0  0  0
  -13.1200   -2.0922   40.1744 C   0  0  0  0  0
  -12.2002   -1.5975   39.2251 C   0  0  0  0  0
  -11.1904   -2.5528   39.1933 C   0  0  0  0  0
  -10.0674   -2.4470   38.3699 C   0  0  0  0  0
   -9.9855   -1.3153   37.5519 C   0  0  0  0  0
  -10.9853   -0.3408   37.5639 C   0  0  0  0  0
  -10.8654    0.8183   36.7045 C   0  0  0  0  0
  -12.0030    1.5770   36.3855 C   0  0  0  0  0
  -11.8253    2.6798   35.5552 C   0  0  0  0  0
  -13.0476    3.2714   35.3731 N   0  0  0  0  0
  -14.0032    2.5752   36.0667 C   0  0  0  0  0
  -13.3859    1.5200   36.7032 C   0  0  0  0  0
  -13.9507    0.8592   37.2922 H   0  0  0  0  0
  -15.0046    2.8901   36.0408 H   0  0  0  0  0
  -13.3068    4.0869   34.8366 H   0  0  0  0  0
  -10.6710    3.1115   35.0129 N   0  0  0  0  0
   -9.6094    2.3443   35.3534 C   0  0  0  0  0
   -8.3369    2.7082   34.8363 N   0  0  0  0  0
   -7.2990    1.7577   34.6159 C   0  0  0  0  0
   -5.9460    2.4436   34.6331 C   0  0  0  0  0
   -5.1916    2.0945   33.4042 N   0  0  0  0  0
   -3.7045    2.3016   33.5571 C   0  0  0  0  0
   -3.4999    3.3289   33.6303 H   0  0  0  0  0
   -3.3710    1.8155   34.4260 H   0  0  0  0  0
   -3.2081    1.9045   32.7214 H   0  0  0  0  0
   -5.5004    0.7027   32.9096 C   0  0  0  0  0
   -5.4116    0.0213   33.7036 H   0  0  0  0  0
   -6.4798    0.6746   32.5321 H   0  0  0  0  0
   -4.8246    0.4436   32.1488 H   0  0  0  0  0
   -6.0839    3.4837   34.6755 H   0  0  0  0  0
   -5.4065    2.1274   35.4766 H   0  0  0  0  0
   -7.3244    1.0300   35.3725 H   0  0  0  0  0
   -7.4385    1.2972   33.6826 H   0  0  0  0  0
   -8.1409    3.6728   34.6099 H   0  0  0  0  0
   -9.6433    1.2214   36.1692 C   0  0  0  0  0
   -8.7588    0.6934   36.3726 H   0  0  0  0  0
  -12.1037   -0.4664   38.3975 C   0  0  0  0  0
  -12.8603    0.2615   38.4129 H   0  0  0  0  0
   -9.1532   -1.2060   36.9211 H   0  0  0  0  0
   -9.3332   -3.1975   38.3844 H   0  0  0  0  0
  -14.0211   -1.6459   40.4764 H   0  0  0  0  0
  -10.8507   -4.7169   40.4277 C   0  0  0  0  0
   -9.8799   -4.4693   40.7419 H   0  0  0  0  0
  -11.3509   -5.2212   41.2010 H   0  0  0  0  0
  -10.7974   -5.3374   39.5824 H   0  0  0  0  0
  1  2  1  0  0  0
  1  5  1  0  0  0
  1 44  1  0  0  0
  2  3  2  0  0  0
  3  4  1  0  0  0
  3 43  1  0  0  0
  4  5  2  0  0  0
  4 39  1  0  0  0
  5  6  1  0  0  0
  6  7  2  0  0  0
  6 42  1  0  0  0
  7  8  1  0  0  0
  7 41  1  0  0  0
  8  9  1  0  0  0
  8 39  2  0  0  0
  9 10  2  0  0  0
  9 37  1  0  0  0
 10 11  1  0  0  0
 10 14  1  0  0  0
 11 12  1  0  0  0
 11 18  2  0  0  0
 12 13  1  0  0  0
 12 17  1  0  0  0
 13 14  2  0  0  0
 13 16  1  0  0  0
 14 15  1  0  0  0
 18 19  1  0  0  0
 19 20  1  0  0  0
 19 37  2  0  0  0
 20 21  1  0  0  0
 20 36  1  0  0  0
 21 22  1  0  0  0
 21 34  1  0  0  0
 21 35  1  0  0  0
 22 23  1  0  0  0
 22 32  1  0  0  0
 22 33  1  0  0  0
 23 24  1  0  0  0
 23 28  1  0  0  0
 24 25  1  0  0  0
 24 26  1  0  0  0
 24 27  1  0  0  0
 28 29  1  0  0  0
 28 30  1  0  0  0
 28 31  1  0  0  0
 37 38  1  0  0  0
 39 40  1  0  0  0
 44 45  1  0  0  0
 44 46  1  0  0  0
 44 47  1  0  0  0
M  END
> <CNNaffinity_variance>
0.06055832

> <CNN_VS>
6.9627843

> <CNNscore>
0.9909701

> <rmsd>
0.8423927

> <minimizedAffinity>
-9.93492

> <Unaligned Pharm. Score (w/o EVS)>
66.23

> <Pharm. Score>
86.6

> <CNNaffinity>
7.026231

> <Unaligned Pharm. Score>
66.23

$$$$
